/*--------------------------------*- C++ -*----------------------------------*\
| =========                 |                                                 |
| \\      /  F ield         | OpenFOAM: The Open Source CFD Toolbox           |
|  \\    /   O peration     | Version:  v1906                                 |
|   \\  /    A nd           | Web:      www.OpenFOAM.com                      |
|    \\/     M anipulation  |                                                 |
\*---------------------------------------------------------------------------*/
FoamFile
{
    version     2.0;
    format      ascii;
    class       dictionary;
    location    "system";
    object      controlDict;
}
// * * * * * * * * * * * * * * * * * * * * * * * * * * * * * * * * * * * * * //
DebugSwitches
{
    compressible::alphatWallBoilingWallFunction                 0;
    compressible::turbulentTemperatureTwoPhaseRadCoupledMixed   0;
}

application     chtMultiRegionTwoPhaseEulerFoam;

startFrom       startTime;

startTime       0;

stopAt          endTime;

endTime         5;

deltaT          1e-6;

writeControl    adjustableRunTime;

writeInterval   0.1;

purgeWrite      0;

writeFormat     ascii;

writePrecision  12;

writeCompression off;

timeFormat      general;

timePrecision   6;

runTimeModifiable yes;

maxCo           0.5;

// Maximum diffusion number
maxDi           10.0;

maxDeltaT       1e-3;

adjustTimeStep  yes;

functions
{
}

// ************************************************************************* //
