/*--------------------------------*- C++ -*----------------------------------*\
| =========                 |                                                 |
| \\      /  F ield         | OpenFOAM: The Open Source CFD Toolbox           |
|  \\    /   O peration     | Version:  1.4.1                                 |
|   \\  /    A nd           | Web:      http://www.openfoam.org               |
|    \\/     M anipulation  |                                                 |
\*---------------------------------------------------------------------------*/

FoamFile
{
    version 2.0;
    format ascii;

    root "/home/dm2/henry/OpenFOAM/OpenFOAM-1.4.1/tutorials/buoyantSimpleFoam";
    case "hotRoom";
    instance "constant";
    local "polyMesh";

    class polyBoundaryMesh;
    object boundary;
}

// * * * * * * * * * * * * * * * * * * * * * * * * * * * * * * * * * * * * * //

3
(
floor
{
    type wall;
    physicalType fixedTemperatureWallFunctions;
    nFaces 400;
    startFace 11200;
}

ceiling
{
    type wall;
    physicalType fixedTemperatureWallFunctions;
    nFaces 400;
    startFace 11600;
}

fixedWalls
{
    type wall;
    physicalType adiabaticWallFunctions;
    nFaces 800;
    startFace 12000;
}
)

// ************************************************************************* //
