/*--------------------------------*- C++ -*----------------------------------*\
| =========                 |                                                 |
| \\      /  F ield         | OpenFOAM: The Open Source CFD Toolbox           |
|  \\    /   O peration     | Version:  v1806                                 |
|   \\  /    A nd           | Web:      www.OpenFOAM.com                      |
|    \\/     M anipulation  |                                                 |
\*---------------------------------------------------------------------------*/
FoamFile
{
    version     2.0;
    format      ascii;
    class       dictionary;
    object      blockMeshDict;
}

// * * * * * * * * * * * * * * * * * * * * * * * * * * * * * * * * * * * * * //

scale   1;

vertices
(
    (-1 -1 0)
    ( 1 -1 0)
    ( 1  1 0)
    (-1  1 0)
    (-1 -1 0.1)
    ( 1 -1 0.1)
    ( 1  1 0.1)
    (-1  1 0.1)
);

blocks
(
    hex (0 1 2 3 4 5 6 7) (250 250 1) simpleGrading (1 1 1)
);

edges
(
);

boundary
(
    sides
    {
        type patch;
        faces
        (
            (0 1 4 5)
            (2 3 6 7)
        );
    }
    inlet
    {
        type patch;
        faces
        (
            (0 3 4 7)
        );
    }
    outlet
    {
        type patch;
        faces
        (
            (1 2 5 6)
        );
    }
    ZMax
    {
        type empty;
        faces
        (
            (4 5 6 7)
        );
    }
    ZMin
    {
        type empty;
        faces
        (
            (0 1 2 3)
        );

    }
);

// ************************************************************************* //
