/*---------------------------------------------------------------------------*\
| =========                 |                                                 |
| \\      /  F ield         | OpenFOAM: The Open Source CFD Toolbox           |
|  \\    /   O peration     | Version:  1.4                                   |
|   \\  /    A nd           | Web:      http://www.openfoam.org               |
|    \\/     M anipulation  |                                                 |
\*---------------------------------------------------------------------------*/

FoamFile
{
    version         2.0;
    format          ascii;

    root            "";
    case            "";
    instance        "";
    local           "";

    class           dictionary;
    object          environmentalProperties;
}

// * * * * * * * * * * * * * * * * * * * * * * * * * * * * * * * * * * * * * //

radiation      on;

radiationModel P1;

noRadiation
{
}

P1Coeffs
{
}

absorptionEmissionModel constantAbsorptionEmission;

constantAbsorptionEmissionCoeffs
{
    a              a      [ 0 -1  0  0  0  0  0] 0.5;
    e              e      [ 0 -1  0  0  0  0  0] 0.5;
    E              E      [ 1 -1 -3  0  0  0  0] 0.0;
}

scatterModel constantScatter;

constantScatterCoeffs
{
    sigma          sigma  [ 0 -1  0  0  0  0  0] 0.0;
    C              C      [ 0  0  0  0  0  0  0] 0.0;
}


// ************************************************************************* //
