/*--------------------------------*- C++ -*----------------------------------*\
| =========                 |                                                 |
| \\      /  F ield         | OpenFOAM: The Open Source CFD Toolbox           |
|  \\    /   O peration     | Version:  v1806                                 |
|   \\  /    A nd           | Web:      www.OpenFOAM.com                      |
|    \\/     M anipulation  |                                                 |
\*---------------------------------------------------------------------------*/

FoamFile
{
    version         2.0;
    format          ascii;
    class           dictionary;
    location        "system";
    object          controlDict;
}

// * * * * * * * * * * * * * * * * * * * * * * * * * * * * * * * * * * * * * //

application     interIsoFoam;

startFrom       latestTime;

startTime       0.0;

stopAt          endTime;

endTime         2;

writeControl    adjustableRunTime;

writeInterval   0.05;

deltaT          0.001;

purgeWrite      0;

writeFormat     ascii;

writePrecision  14;

writeCompression off;

timeFormat      general;

timePrecision   6;

graphFormat     raw;

runTimeModifiable no;

adjustTimeStep  no;

maxCo           1e6;
maxAlphaCo      0.5;

maxDeltaT       0.05;

functions
{
    setVelocity
    {
        type            setFlow;
        libs            ("libfieldFunctionObjects.so");
        writeControl    writeTime;
        mode            rotation;
        scale           1;
        reverseTime     1;
        omega           6.28318530718;
        origin          (0.5 0 0.5);
        refDir          (1 0 0);
        axis            (0 1 0);
    }
}

// ************************************************************************* //
