/*--------------------------------*- C++ -*----------------------------------*\
| =========                 |                                                 |
| \\      /  F ield         | OpenFOAM: The Open Source CFD Toolbox           |
|  \\    /   O peration     | Version:  v2112                                 |
|   \\  /    A nd           | Website:  www.openfoam.com                      |
|    \\/     M anipulation  |                                                 |
\*---------------------------------------------------------------------------*/
FoamFile
{
    version     2.0;
    format      ascii;
    class       dictionary;
    location    "system";
    object      fvSolution;
}
// * * * * * * * * * * * * * * * * * * * * * * * * * * * * * * * * * * * * * //

solvers
{
    alpha1
    {

        reconstructionScheme isoAlpha;
        vof2IsoTol 1e-8;
        surfCellTol 1e-8;
        writeVTK    false;
    }
}


PIMPLE
{
    momentumPredictor no;
    nCorrectors     -1;
    nNonOrthogonalCorrectors -1;
    nAlphaCorr      1;
    nAlphaSubCycles 1;
    cAlpha          1;
    pRefCell        0;
    pRefValue       0;
}

SIMPLE
{
    nNonOrthogonalCorrectors 0;
}

// ************************************************************************* //
