/*--------------------------------*- C++ -*----------------------------------*\
| =========                 |                                                 |
| \\      /  F ield         | OpenFOAM: The Open Source CFD Toolbox           |
|  \\    /   O peration     | Version:  dev                                   |
|   \\  /    A nd           | Web:      www.OpenFOAM.com                      |
|    \\/     M anipulation  |                                                 |
\*---------------------------------------------------------------------------*/
FoamFile
{
    version     2.0;
    format      ascii;
    class       dictionary;
    location    "constant";
    object      reactingCloud1Properties;
}
// * * * * * * * * * * * * * * * * * * * * * * * * * * * * * * * * * * * * * //

solution
{
    active          true;
    coupled         false;
    cellValueSourceCorrection off;

    interpolationSchemes
    {
        rho             cell;
        U               cellPoint;
        mu              cell;
        T               cell;
        Cp              cell;
        p               cell;
    }

    integrationSchemes
    {
        U               Euler;
        T               Euler;
    }
}

constantProperties
{
    parcelTypeId    1;

    rhoMin          1e-15;
    TMin            200;
    pMin            1000;
    minParticleMass 1e-15;

    rho0            1000;
    T0              350;
    cp0             4100;

    youngsModulus   1e9;
    poissonsRatio   0.35;

    epsilon0        1;
    f0              0.5;

    Tvap            284;
    Tbp             373;
    Pr              0.7;
    LDevol          0;
    hRetentionCoeff 1;

    constantVolume  false;
}

particleForces
{
    gravity         on;
    virtualMass     off;
    Cvm             0.5;
    pressureGradient off;
    gradU           gradU;
    paramagnetic    off;
}

subModels
{
    InjectionModel  ManualInjection;

    DragModel       SphereDrag;

    DispersionModel none;

    PatchInteractionModel StandardWallInteraction;

    HeatTransferModel RanzMarshall;

    CompositionModel SingleMixtureFraction;

    PhaseChangeModel LiquidEvaporation;

    DevolatilisationModel none;

    SurfaceReactionModel none;

    PostProcessingModel none;

    SurfaceFilmModel none;

    CollisionModel none;

    radiation       off;

    ManualInjectionCoeffs
    {
        massTotal       massTotal [ 1 0 0 0 0 ] 5.23599e-10; // 1 droplet of density 1000 kg/m3
        parcelBasisType mass;
        SOI             0;
        positionsFile   "reactingCloud1Positions";
        U0              (0 0 0);
        parcelPDF
        {
            pdfType         uniform;
            uniformPDF
            {
                minValue        100e-06;
                maxValue        100e-06;
            }
        }
    }
    StandardWallInteractionCoeffs
    {
        type            rebound;
    }

    RanzMarshallCoeffs
    {
        BirdCorrection  off;
    }

    SingleMixtureFractionCoeffs
    {
        phases
        (
            gas
            {
            }
            liquid
            {
                H2O 1;
            }
            solid
            {
            }
        );
        YGasTot0        0;
        YLiquidTot0     1;
        YSolidTot0      0;
    }

    LiquidEvaporationCoeffs
    {
        enthalpyTransfer enthalpyDifference; // latentHeat;

        activeLiquids
        (
            H2O
        );
    }

    PatchPostProcessingCoeffs
    {
        maxStoredParcels 100;

        patches
        (
            outlet
        );
    }
}


// ************************************************************************* //
