/*---------------------------------------------------------------------------*\
| =========                 |                                                 |
| \\      /  F ield         | OpenFOAM: The Open Source CFD Toolbox           |
|  \\    /   O peration     | Version:  1.4                                   |
|   \\  /    A nd           | Web:      http://www.openfoam.org               |
|    \\/     M anipulation  |                                                 |
\*---------------------------------------------------------------------------*/


FoamFile
{
    version         2.0;
    format          ascii;

    root            "";
    case            "";
    instance        "";
    local           "";

    class           dictionary;
    object          turbulenceProperties;
}

// * * * * * * * * * * * * * * * * * * * * * * * * * * * * * * * * * * * * * //

// Turbulence model selection
turbulenceModel kOmegaSST; //kEpsilon;

// Do you wish to calculate turbulence?
turbulence      on;

// Laminar model coefficients
laminarCoeffs
{
}

// Standard k-epsilon model coefficients
kEpsilonCoeffs
{
    // Cmu
    Cmu             Cmu [0 0 0 0 0 0 0] 0.09;
    // C1
    C1              C1 [0 0 0 0 0 0 0] 1.44;
    // C2
    C2              C2 [0 0 0 0 0 0 0] 1.92;
    // C3
    C3              C3 [0 0 0 0 0 0 0] -0.33;
    // alphah
    alphah          alphah [0 0 0 0 0 0 0] 1;
    // alphak
    alphak          alphak [0 0 0 0 0 0 0] 1;
    // alphaEps
    alphaEps        alphaEps [0 0 0 0 0 0 0] 0.76923;
}

// RNG k-epsilon model coefficients
RNGkEpsilonCoeffs
{
    // Cmu
    Cmu             Cmu [0 0 0 0 0 0 0] 0.0845;
    // C1
    C1              C1 [0 0 0 0 0 0 0] 1.42;
    // C2
    C2              C2 [0 0 0 0 0 0 0] 1.68;
    // C3
    C3              C3 [0 0 0 0 0 0 0] -0.33;
    // alphah
    alphah          alphah [0 0 0 0 0 0 0] 1;
    // alphak
    alphak          alphaK [0 0 0 0 0 0 0] 1.39;
    // alphaEps
    alphaEps        alphaEps [0 0 0 0 0 0 0] 1.39;
    // eta0
    eta0            eta0 [0 0 0 0 0 0 0] 4.38;
    // beta
    beta            beta [0 0 0 0 0 0 0] 0.012;
}

// Launder-Sharma low Reynolds number k-epsilon model coefficients
LaunderSharmaKECoeffs
{
    // Cmu
    Cmu             Cmu [0 0 0 0 0 0 0] 0.09;
    // C1
    C1              C1 [0 0 0 0 0 0 0] 1.44;
    // C2
    C2              C2 [0 0 0 0 0 0 0] 1.92;
    // C3
    C3              C3 [0 0 0 0 0 0 0] -0.33;
    // alphah
    alphah          alphah [0 0 0 0 0 0 0] 1;
    // alphak
    alphak          alphak [0 0 0 0 0 0 0] 1;
    // alphaEps
    alphaEps        alphaEps [0 0 0 0 0 0 0] 0.76923;
}

// Launder-Reece-Rodi RSTM with wall functions model coefficients
LRRCoeffs
{
    // Cmu
    Cmu             Cmu [0 0 0 0 0 0 0] 0.09;
    // Clrr1
    Clrr1           Clrr1 [0 0 0 0 0 0 0] 1.8;
    // Clrr2
    Clrr2           Clrr2 [0 0 0 0 0 0 0] 0.6;
    // C1
    C1              C1 [0 0 0 0 0 0 0] 1.44;
    // C2
    C2              C2 [0 0 0 0 0 0 0] 1.92;
    // Cs
    Cs              Cs [0 0 0 0 0 0 0] 0.25;
    // Ceps
    Ceps            Ceps [0 0 0 0 0 0 0] 0.15;
    // alphah
    alphah          alphah [0 0 0 0 0 0 0] 1;
    // alphaEps
    alphaEps        alphaEps [0 0 0 0 0 0 0] 0.76923;
    // alphaR
    alphaR          alphaR [0 0 0 0 0 0 0] 1.22;
}

// Launder-Gibson RSTM with wall reflection and wall functions model coefficients
LaunderGibsonRSTMCoeffs
{
    // Cmu
    Cmu             Cmu [0 0 0 0 0 0 0] 0.09;
    // Clg1
    Clg1            Clg1 [0 0 0 0 0 0 0] 1.8;
    // Clg2
    Clg2            Clg2 [0 0 0 0 0 0 0] 0.6;
    // C1
    C1              C1 [0 0 0 0 0 0 0] 1.44;
    // C2
    C2              C2 [0 0 0 0 0 0 0] 1.92;
    // C1Ref
    C1Ref           C1Ref [0 0 0 0 0 0 0] 0.5;
    // C2Ref
    C2Ref           C2Ref [0 0 0 0 0 0 0] 0.3;
    // Cs
    Cs              Cs [0 0 0 0 0 0 0] 0.25;
    // Ceps
    Ceps            Ceps [0 0 0 0 0 0 0] 0.15;
    // alphah
    alphah          alphah [0 0 0 0 0 0 0] 1;
    // alphaEps
    alphaEps        alphaEps [0 0 0 0 0 0 0] 0.76923;
    // alphaR
    alphaR          alphaR [0 0 0 0 0 0 0] 1.22;
}

kOmegaSSTCoeffs
{
    alphaK1         alphaK1     [0 0 0 0 0 0 0] 0.85034;
    alphaK2         alphaK1     [0 0 0 0 0 0 0] 1.0;
    alphaOmega1     alphaOmega1 [0 0 0 0 0 0 0] 0.5;
    alphaOmega2     alphaOmega2 [0 0 0 0 0 0 0] 0.85616;
    gamma1          gamma1      [0 0 0 0 0 0 0] 0.5532;
    gamma2          gamma2      [0 0 0 0 0 0 0] 0.4403;
    beta1           beta1       [0 0 0 0 0 0 0] 0.0750;
    beta2           beta2       [0 0 0 0 0 0 0] 0.0828;
    betaStar        betaStar    [0 0 0 0 0 0 0] 0.09;
    a1              a1          [0 0 0 0 0 0 0] 0.31;
    c1              c1          [0 0 0 0 0 0 0] 10;

    Cmu             Cmu         [0 0 0 0 0 0 0] 0.09;

    alphah          alphah      [0 0 0 0 0 0 0] 1;
}

// Wall function coefficients
wallFunctionCoeffs
{
    // kappa
    kappa           kappa [0 0 0 0 0 0 0] 0.4187;
    // E
    E               E [0 0 0 0 0 0 0] 9;
}


// ************************************************************************* //
