/*--------------------------------*- C++ -*----------------------------------*\
| =========                 |                                                 |
| \\      /  F ield         | OpenFOAM: The Open Source CFD Toolbox           |
|  \\    /   O peration     | Version:  v1906                                 |
|   \\  /    A nd           | Web:      www.OpenFOAM.com                      |
|    \\/     M anipulation  |                                                 |
\*---------------------------------------------------------------------------*/
FoamFile
{
    version     2.0;
    format      ascii;
    class       volScalarField;
    location    "0";
    object      nuTilda;
}
// * * * * * * * * * * * * * * * * * * * * * * * * * * * * * * * * * * * * * //

dimensions      [ 0 2 -1 0 0 0 0 ];

internalField   uniform 4.5e-05;

boundaryField
{
    frontBack
    {
        type            empty;
    }
    sideWall
    {
        type            fixedValue;
        value           uniform 0;
    }
    upper
    {
        type            fixedValue;
        value           uniform 0;
    }
    lower
    {
        type            fixedValue;
        value           uniform 0;
    }
    Inlet
    {
        type            fixedValue;
        value           uniform 4.5e-05;
    }
    Outlet
    {
        type            zeroGradient;
    }
}


// ************************************************************************* //
