/*--------------------------------*- C++ -*----------------------------------*\
| =========                 |                                                 |
| \\      /  F ield         | OpenFOAM: The Open Source CFD Toolbox           |
|  \\    /   O peration     | Version:  v2112                                 |
|   \\  /    A nd           | Website:  www.openfoam.com                      |
|    \\/     M anipulation  |                                                 |
\*---------------------------------------------------------------------------*/
FoamFile
{
    version     2.0;
    format      ascii;
    class       dictionary;
    object      blockMeshDict;
}
// * * * * * * * * * * * * * * * * * * * * * * * * * * * * * * * * * * * * * //

scale    1;

vertices
(
    ( -4.99979 -1.20038 -0.400296 )
    ( 5 -1.20038 -0.400296 )
    ( 5 1.20038 -0.400296 )
    ( -4.99979 1.20038 -0.400296 )
    ( -4.99979 -1.20038 1.10002 )
    ( 5 -1.20038 1.10002 )
    ( 5 1.20038 1.10002 )
    ( -4.99979 1.20038 1.10002 )
);

blocks
(
    hex (0 1 2 3 4 5 6 7) ( 85 20 12 ) simpleGrading ( 1 1 1 )
);

edges
(
);

boundary
(
    overset-1
    {
        type overset;
        faces
        (
            (0 4 7 3)
            (1 2 6 5)
            (0 1 5 4)
            (3 7 6 2)
            (0 3 2 1)
            (4 5 6 7)
        );
    }
);


// ************************************************************************* //
