/*---------------------------------------------------------------------------*\
| =========                 |                                                 |
| \\      /  F ield         | OpenFOAM: The Open Source CFD Toolbox           |
|  \\    /   O peration     | Version:  1.4                                   |
|   \\  /    A nd           | Web:      http://www.openfoam.org               |
|    \\/     M anipulation  |                                                 |
\*---------------------------------------------------------------------------*/

FoamFile
{
    version 2.0;
    format ascii;

    root "";
    case "";
    instance "";
    local "";

    class polyBoundaryMesh;
    object boundary;
}

// * * * * * * * * * * * * * * * * * * * * * * * * * * * * * * * * * * * * * //

6
(
axis
{
    type empty;
    nFaces 0;
    startFace 41031;
}

inlet
{
    type patch;
    nFaces 30;
    startFace 41031;
}

wall
{
    type wall;
    nFaces 70;
    startFace 41061;
}

atmosphere
{
    type patch;
    nFaces 175;
    startFace 41131;
}

front
{
    type wedge;
    nFaces 20603;
    startFace 41306;
}

back
{
    type wedge;
    nFaces 20603;
    startFace 61909;
}
)

// ************************************************************************* //
