/*--------------------------------*- C++ -*----------------------------------*\
| =========                 |                                                 |
| \\      /  F ield         | OpenFOAM: The Open Source CFD Toolbox           |
|  \\    /   O peration     | Version:  v2112                                 |
|   \\  /    A nd           | Website:  www.openfoam.com                      |
|    \\/     M anipulation  |                                                 |
\*---------------------------------------------------------------------------*/
FoamFile
{
    version     2.0;
    format      ascii;
    class       dictionary;
    object      controlDict;
}
// * * * * * * * * * * * * * * * * * * * * * * * * * * * * * * * * * * * * * //

application     potentialFreeSurfaceFoam;

startFrom       startTime;

startTime       0;

stopAt          endTime;

endTime         20;

deltaT          0.001;

writeControl    adjustable;

writeInterval   0.02;

purgeWrite      0;

writeFormat     ascii;

writePrecision  6;

writeCompression off;

timeFormat      general;

timePrecision   6;

runTimeModifiable yes;

adjustTimeStep  yes;

maxCo           0.4;

maxDeltaT       1;

functions
{
    forces
    {
        type            forces;
        libs            (forces);
        writeControl    writeTime;
        patches         (floatingObject);
        rho             rhoInf;
        log             yes;
        rhoInf          1000;
        CofR            (0 0 0);
    }

    poolHeight
    {
        type            surfaceFieldValue;
        libs            (fieldFunctionObjects);
        writeControl    timeStep;
        writeInterval   1;
        log             yes;
        writeTotalArea  no;
        writeFields     no;
        regionType      faceZone;
        name            f0;
        operation       areaAverage;
        fields
        (
            zeta
        );
    }
};


// ************************************************************************* //
