/*--------------------------------*- C++ -*----------------------------------*\
| =========                 |                                                 |
| \\      /  F ield         | OpenFOAM: The Open Source CFD Toolbox           |
|  \\    /   O peration     | Version:  v1906                                 |
|   \\  /    A nd           | Web:      www.OpenFOAM.com                      |
|    \\/     M anipulation  |                                                 |
\*---------------------------------------------------------------------------*/
FoamFile
{
    version     2.0;
    format      ascii;
    class       dictionary;
    object      decomposeParDict;
}
// * * * * * * * * * * * * * * * * * * * * * * * * * * * * * * * * * * * * * //

// Do NOT attempt with hierarchical with these constraints!

numberOfSubdomains 128;

// method          simple;
method          scotch;
// method          random;

coeffs
{
    n   (16 8 4);
}

// Optional decomposition constraints
#include "<system>/decomposeConstraints"


// ************************************************************************* //
