/*--------------------------------*- C++ -*----------------------------------*\
| =========                 |                                                 |
| \\      /  F ield         | OpenFOAM: The Open Source CFD Toolbox           |
|  \\    /   O peration     | Version:  v2112                                 |
|   \\  /    A nd           | Website:  www.openfoam.com                      |
|    \\/     M anipulation  |                                                 |
\*---------------------------------------------------------------------------*/
FoamFile
{
    version     2.0;
    format      ascii;
    class       dictionary;
    object      surfaceFeatureExtractDict;
}
// * * * * * * * * * * * * * * * * * * * * * * * * * * * * * * * * * * * * * //

HUB.obj
{
    extractionMethod extractFromSurface;
    writeObj        yes;

    extractFromSurfaceCoeffs
    {
        includedAngle   150;
    }
}

BLADES.obj
{
    extractionMethod extractFromSurface;
    writeObj        yes;

    extractFromSurfaceCoeffs
    {
        includedAngle   150;
    }
}


MRF_REGION.obj
{
    extractionMethod extractFromSurface;
    writeObj        yes;

    extractFromSurfaceCoeffs
    {
        includedAngle   150;
    }
}


// ************************************************************************* //
