/*--------------------------------*- C++ -*----------------------------------*\
| =========                 |                                                 |
| \\      /  F ield         | OpenFOAM: The Open Source CFD Toolbox           |
|  \\    /   O peration     | Version:  dev                                   |
|   \\  /    A nd           | Web:      www.OpenFOAM.com                      |
|    \\/     M anipulation  |                                                 |
\*---------------------------------------------------------------------------*/
FoamFile
{
    version     2.0;
    format      ascii;
    class       dictionary;
    location    "constant";
    object      kinematicCloud1Properties;
}
// * * * * * * * * * * * * * * * * * * * * * * * * * * * * * * * * * * * * * //

solution
{
    active          true;
    coupled         true;
    transient       yes;
    cellValueSourceCorrection on;

    sourceTerms
    {
        schemes
        {
            U               explicit 1;
        }
    }

    interpolationSchemes
    {
        rho             cell;
        U               cellPoint;
        mu              cell;
    }

    integrationSchemes
    {
        U               Euler;
    }
}

constantProperties
{
    parcelTypeId    2;

    rhoMin          1e-15;
    minParticleMass 1e-15;

    rho0            5000;

    youngsModulus   1e9;
    poissonsRatio   0.35;
}

subModels
{
    particleForces
    {
        activeForces
        (
            sphereDrag
            gravity
        );
    }

    injectionModel  manualInjection;

    dispersionModel stochasticDispersionRAS;

    patchInteractionModel standardWallInteraction;

    postProcessingModel none;

    surfaceFilmModel none;

    manualInjectionCoeffs
    {
        massTotal       0.0002;
        parcelBasisType mass;
        SOI             0;
        positionsFile   "kinematicCloud1Positions";
        U0              ( 0 0 0 );
        sizeDistribution
        {
            type        RosinRammler;
            RosinRammlerDistribution
            {
                minValue        5e-05;
                maxValue        0.0001;
                d               7.5e-05;
                n               0.5;
            }
        }
    }

    standardWallInteractionCoeffs
    {
        type            rebound;
    }
}


// ************************************************************************* //
