/*--------------------------------*- C++ -*----------------------------------*\
| =========                 |                                                 |
| \\      /  F ield         | OpenFOAM: The Open Source CFD Toolbox           |
|  \\    /   O peration     | Version:  dev                                   |
|   \\  /    A nd           | Web:      www.OpenFOAM.com                      |
|    \\/     M anipulation  |                                                 |
\*---------------------------------------------------------------------------*/
FoamFile
{
    version     2.0;
    format      ascii;
    class       dictionary;
    location    "constant";
    object      kinematicCloud1Properties;
}
// * * * * * * * * * * * * * * * * * * * * * * * * * * * * * * * * * * * * * //

solution
{
    active          true;
    coupled         true;
    cellValueSourceCorrection on;

    interpolationSchemes
    {
        rho             cell;
        U               cellPoint;
        mu              cell;
    }

    integrationSchemes
    {
        U               Euler;
    }
}

parcelTypeId    2;

constantProperties
{
    rhoMin          1e-15;
    minParticleMass 1e-15;
    rho0            5000;
    youngsModulus   1e9;
    poissonsRatio   0.35;
}

particleForces
{
    gravity             on;
    virtualMass         off;
    pressureGradient    off;
    paramagnetic        off;
}

subModels
{
    InjectionModel  ManualInjection;

    DragModel       SphereDrag;

    DispersionModel StochasticDispersionRAS;

    PatchInteractionModel StandardWallInteraction;

    PostProcessingModel none;

    SurfaceFilmModel none;

    CollisionModel none;

    ManualInjectionCoeffs
    {
        massTotal       massTotal [ 1 0 0 0 0 ] 0.0002;
        parcelBasisType mass;
        SOI             0;
        positionsFile   "kinematicCloud1Positions";
        U0              ( 0 0 0 );
        parcelPDF
        {
            pdfType         RosinRammler;
            RosinRammlerPDF
            {
                minValue        5e-05;
                maxValue        0.0001;
                d               7.5e-05;
                n               0.5;
            }
        }
    }

    ConeInjectionCoeffs
    {
        SOI             0.001;
        duration        0.005;
        position        ( 0.25 0.25 0.05 );
        direction       ( 0 -1 0 );
        parcelsPerSecond 10000;
        flowRateProfile Constant 0.01;
        Umag            Constant 50;
        thetaInner      Constant 0;
        thetaOuter      Constant 30;

        parcelPDF
        {
            pdfType         RosinRammler;
            RosinRammlerPDF
            {
                minValue        5e-05;
                maxValue        0.0001;
                d               ( 7.5e-05 );
                n               ( 0.5 );
            }
        }
    }

    StandardWallInteractionCoeffs
    {
        type            rebound;
    }
}


// ************************************************************************* //
