/*--------------------------------*- C++ -*----------------------------------*\
| =========                 |                                                 |
| \\      /  F ield         | OpenFOAM: The Open Source CFD Toolbox           |
|  \\    /   O peration     | Version:  1.6                                   |
|   \\  /    A nd           | Web:      http://www.OpenFOAM.org               |
|    \\/     M anipulation  |                                                 |
\*---------------------------------------------------------------------------*/
FoamFile
{
    version     2.0;
    format      ascii;
    class       volScalarField;
    location    "0/region0_to_wallFilmRegion_masterRegion";
    object      p;
}
// * * * * * * * * * * * * * * * * * * * * * * * * * * * * * * * * * * * * * //

dimensions      [1 -1 -2 0 0 0 0];

internalField   uniform  100000;

boundaryField
{
    // cyclic boundaries between film patches
    "(cube[0-9][0-9]_side[0-9]_cube[0-9][0-9]_side[0-9])"
    {
        type            cyclic;
    }

    // top film surface
    "(.*top)"
    {
        type            zeroGradient;
    }

    // mapped boundaries
    "(region0_to.*)"
    {
        type            directMappedFixedInternalValue;
        average         100000;
        setAverage      no;
        value           uniform 100000;
    }

    // floor sides
    floor_side
    {
        type            zeroGradient;
    }
}

// ************************************************************************* //
