/*--------------------------------*- C++ -*----------------------------------*\
| =========                 |                                                 |
| \\      /  F ield         | OpenFOAM: The Open Source CFD Toolbox           |
|  \\    /   O peration     | Version:  v2112                                 |
|   \\  /    A nd           | Website:  www.openfoam.com                      |
|    \\/     M anipulation  |                                                 |
\*---------------------------------------------------------------------------*/
FoamFile
{
    version     2.0;
    format      ascii;
    class       dictionary;
    object      faMeshDefinition;
}
// * * * * * * * * * * * * * * * * * * * * * * * * * * * * * * * * * * * * * //

polyMeshPatches  ( film );

boundary
{
    inlet
    {
        type                patch;
        neighbourPolyPatch  inlet;
    }

    outlet
    {
        type                patch;
        neighbourPolyPatch  outlet;
    }

    side
    {
        type                patch;
        neighbourPolyPatch  side;
    }

    symmetry
    {
        type                symmetry;
        neighbourPolyPatch  symmetry;
    }

    cylinder
    {
        type                patch;
        neighbourPolyPatch  cylinder;
    }
}


defaultPatch
{
    name    empty;
    type    empty;
}


// ************************************************************************** //
