/*--------------------------------*- C++ -*----------------------------------*\
| =========                 |                                                 |
| \\      /  F ield         | OpenFOAM: The Open Source CFD Toolbox           |
|  \\    /   O peration     | Version:  dev                                   |
|   \\  /    A nd           | Web:      www.OpenFOAM.com                      |
|    \\/     M anipulation  |                                                 |
\*---------------------------------------------------------------------------*/
FoamFile
{
    version     2.0;
    format      ascii;
    class       volScalarField;
    object      boundaryRadiationProperties;
}
// * * * * * * * * * * * * * * * * * * * * * * * * * * * * * * * * * * * * * //

dimensions      [0 0 0 0 0 0 0];

internalField   uniform 0;

boundaryField
{
    region0_to_pyrolysisRegion_coupledWall
    {
        type            boundaryRadiation;
        mode            solidRadiation;
    }

    ".*"
    {
        type            boundaryRadiation;
        mode            lookup;
        emissivity      uniform 1.0;
        absorptivity    uniform 1.0;
        transmissivity  uniform 0.0;
    }
}

// ************************************************************************* //
