/*--------------------------------*- C++ -*----------------------------------*\
| =========                 |                                                 |
| \\      /  F ield         | OpenFOAM: The Open Source CFD Toolbox           |
|  \\    /   O peration     | Version:  dev.thermoChemDicts                   |
|   \\  /    A nd           | Web:      www.OpenFOAM.com                      |
|    \\/     M anipulation  |                                                 |
\*---------------------------------------------------------------------------*/
FoamFile
{
    version     2.0;
    format      ascii;
    class       dictionary;
    location    "constant";
    object      thermophysicalProperties;
}
// * * * * * * * * * * * * * * * * * * * * * * * * * * * * * * * * * * * * * //

thermoType      hhuMixtureThermo<inhomogeneousMixture<sutherlandTransport<specieThermo<janafThermo<perfectGas>>>>>;

stoichiometricAirFuelMassRatio stoichiometricAirFuelMassRatio [ 0 0 0 0 0 0 0 ] 15.0336;

fuel
{
    nMoles          1;
    molWeight       114.23;
    Tlow            298.15;
    Thigh           5000;
    Tcommon         1000;
    highCpCoeffs    ( 19.3963 0.0488137 -1.55798e-05 2.17831e-09 -1.08391e-13 -37133.9 -78.8531 );
    lowCpCoeffs     ( 0.429357 0.0765769 8.41306e-06 -5.86603e-08 2.79414e-11 -30446.4 25.6735 );
    As              1.67212e-06;
    Ts              170.672;
}

oxidant
{
    nMoles          1;
    molWeight       28.8504;
    Tlow            200;
    Thigh           6000;
    Tcommon         1000;
    highCpCoeffs    ( 3.10205 0.00123963 -4.17512e-07 6.60292e-11 -3.87448e-15 -985.517 5.35187 );
    lowCpCoeffs     ( 3.58378 -0.0007269 1.66985e-06 -1.08452e-10 -4.31951e-13 -1050.53 3.11223 );
    As              1.67212e-06;
    Ts              170.672;
}

burntProducts
{
    nMoles          1;
    molWeight       28.8478;
    Tlow            298.15;
    Thigh           5000;
    Tcommon         1000;
    highCpCoeffs    ( 3.10156 0.00124723 -4.2071e-07 6.66805e-11 -3.92581e-15 -1092.96 5.35255 );
    lowCpCoeffs     ( 3.58264 -0.000711179 1.64893e-06 -9.37968e-11 -4.35761e-13 -1158.24 3.11438 );
    As              1.67212e-06;
    Ts              170.672;
}


// ************************************************************************* //
