/*--------------------------------*- C++ -*----------------------------------*\
| =========                 |                                                 |
| \\      /  F ield         | OpenFOAM: The Open Source CFD Toolbox           |
|  \\    /   O peration     | Version:  v2306                                 |
|   \\  /    A nd           | Website:  www.openfoam.com                      |
|    \\/     M anipulation  |                                                 |
\*---------------------------------------------------------------------------*/
FoamFile
{
    version     2.0;
    format      ascii;
    class       dictionary;
    object      topoSetDict;
}
// * * * * * * * * * * * * * * * * * * * * * * * * * * * * * * * * * * * * * //

actions
(
    {
        name    c0;
        type    cellSet;
        action  new;
        source  regionToCell;
        insidePoints ((0.01 0.01 0.01));
    }

    {
        name    c1;
        type    cellSet;
        action  new;
        source  cellToCell;
        set     c0;
    }

    {
        name    c1;
        type    cellSet;
        action  invert;
    }

    // Select box to remove from region 1

    {
        name    box;
        type    cellSet;
        action  new;
        source  cellToCell;
        set     c1;
    }

    {
        name    box;
        type    cellSet;
        action  subset;
        source  boxToCell;
        box     (0.025 0.045 -100)(0.075 0.055 100);
    }

    {
        name    box;
        type    cellSet;
        action  invert;
    }
);


// ************************************************************************* //
