/*--------------------------------*- C++ -*----------------------------------*\
| =========                 |                                                 |
| \\      /  F ield         | OpenFOAM: The Open Source CFD Toolbox           |
|  \\    /   O peration     | Version:  1.6                                   |
|   \\  /    A nd           | Web:      www.OpenFOAM.org                      |
|    \\/     M anipulation  |                                                 |
\*---------------------------------------------------------------------------*/
FoamFile
{
    version     2.0;
    format      ascii;
    class       dictionary;
    location    "system";
    object      fvSolution;
}
// * * * * * * * * * * * * * * * * * * * * * * * * * * * * * * * * * * * * * //

solvers
{
    "(rho|G)"
    {
        solver          PCG;
        preconditioner  DIC;
        tolerance       1e-05;
        relTol          0;
        maxIter         100;
    }

    "(U|h|k|epsilon)"
    {
        solver          PBiCG;
        preconditioner  DILU;
        tolerance       1e-05;
        relTol          0;
        maxIter         100;
    }

    p
    {
        solver           GAMG;
        tolerance        1e-05;
        relTol           0;

        smoother         DICGaussSeidel;
        nPreSweeps       0;
        nPostSweeps      2;

        cacheAgglomeration true;

        nCellsInCoarsestLevel 10;
        agglomerator     faceAreaPair;
        mergeLevels      1;

        maxIter          50;
    };

    "(hs|Yi|O2|N2|H2O)"
    {
        solver          PBiCG;
        preconditioner  DILU;
        tolerance       1e-06;
        relTol          0;
        maxIter         100;
    }
}

PISO
{
    transonic       no;
    nCorrectors     2;
    nNonOrthogonalCorrectors 0;
    momentumPredictor yes;
}


// ************************************************************************* //
