/*--------------------------------*- C++ -*----------------------------------*\
| =========                 |                                                 |
| \\      /  F ield         | OpenFOAM: The Open Source CFD Toolbox           |
|  \\    /   O peration     | Version:  dev                                   |
|   \\  /    A nd           | Web:      www.OpenFOAM.org                      |
|    \\/     M anipulation  |                                                 |
\*---------------------------------------------------------------------------*/
FoamFile
{
    version     2.0;
    format      ascii;
    class       dictionary;
    location    "system";
    object      fvSchemes;
}
// * * * * * * * * * * * * * * * * * * * * * * * * * * * * * * * * * * * * * //

ddtSchemes
{
    default         Euler;

    "ddt\(alpha.*,.*\)"  bounded Euler;
}

gradSchemes
{
    default         Gauss linear;
}

divSchemes
{
    default                 none;

    div(phi,alphaair)       Gauss vanLeer;
    div(phir,alphaair)      Gauss vanLeer;

    "div\(alphaPhi.*,U.*\)" bounded Gauss limitedLinearV 1;
    "div\(phi.*,U.*\)"      Gauss limitedLinearV 1;
    "div\(\(alpha.*Rc\)\)"  Gauss linear;
    "div\(phid.*,p\)"       Gauss upwind;

    "div\(alphaPhi.*,h.*\)" bounded Gauss limitedLinear 1;
    "div\(phi.*,K.*\)"      Gauss limitedLinear 1;

    "div\(alphaPhi.*,(k|epsilon)\)"  bounded Gauss limitedLinear 1;
}

laplacianSchemes
{
    default         Gauss linear uncorrected;
}

interpolationSchemes
{
    default         linear;
}

snGradSchemes
{
    default         uncorrected;
}

fluxRequired
{
    default         no;
    p               ;
}


// ************************************************************************* //
