/*--------------------------------*- C++ -*----------------------------------*\
| =========                 |                                                 |
| \\      /  F ield         | OpenFOAM: The Open Source CFD Toolbox           |
|  \\    /   O peration     | Version:  dev                                   |
|   \\  /    A nd           | Web:      www.OpenFOAM.org                      |
|    \\/     M anipulation  |                                                 |
\*---------------------------------------------------------------------------*/
FoamFile
{
    version     2.0;
    format      ascii;
    class       featureEdgeMesh;
    location    "constant/triSurface";
    object      flange.eMesh;
}
// * * * * * * * * * * * * * * * * * * * * * * * * * * * * * * * * * * * * * //


// points:

753
(
(0.0065 0.0075 -0.02375)
(0.0065 0.0075 0.00225)
(-0.0065 0.0075 -0.02375)
(-0.0065 0.0075 0.00225)
(0.0065 0.002 -0.02375)
(0.0065 0.002 0.00225)
(-0.0065 0.002 -0.02375)
(-0.0065 0.002 0.00225)
(0.00249896 -6.98e-16 -0.00925)
(0.0022979 -6.98e-16 -0.010222)
(0.0117593 0.002 -0.00925)
(0.0119634 0.002 -0.0108016)
(0.0147592 0.002 -0.014446)
(0.0162069 0.002 -0.0150457)
(0.0177593 0.002 -0.01525)
(0.013513 0.002 -0.013489)
(0.012563 0.002 -0.0122497)
(0.0022979 -6.98e-16 -0.008278)
(0.0235547 0.002 -0.0108036)
(0.0237593 0.002 -0.00925)
(0.0229553 0.002 -0.0122503)
(0.022002 0.002 -0.0134926)
(0.0207594 0.002 -0.014446)
(0.0193148 0.002 -0.0150449)
(0.0235547 0.002 -0.0076964)
(0.0229553 0.002 -0.0062497)
(0.022002 0.002 -0.00500735)
(0.0207594 0.002 -0.00405388)
(0.0193148 0.002 -0.00345514)
(0.0177593 0.002 -0.00325)
(0.0119634 0.002 -0.0076985)
(0.0162069 0.002 -0.0034543)
(0.0147592 0.002 -0.0040539)
(0.013513 0.002 -0.00501106)
(0.012563 0.002 -0.0062503)
(-0.0022979 -6.98e-16 -0.010222)
(-0.00249896 -6.98e-16 -0.00925)
(-0.0119634 0.002 -0.0108016)
(-0.0117593 0.002 -0.00925)
(-0.0162069 0.002 -0.0150457)
(-0.0147592 0.002 -0.014446)
(-0.0177593 0.002 -0.01525)
(-0.013513 0.002 -0.013489)
(-0.012563 0.002 -0.0122497)
(-0.0022979 -6.98e-16 -0.008278)
(-0.0237593 0.002 -0.00925)
(-0.0235547 0.002 -0.0108036)
(-0.0229553 0.002 -0.0122503)
(-0.022002 0.002 -0.0134926)
(-0.0207594 0.002 -0.014446)
(-0.0193148 0.002 -0.0150449)
(-0.0235547 0.002 -0.0076964)
(-0.0229553 0.002 -0.0062497)
(-0.022002 0.002 -0.00500735)
(-0.0207594 0.002 -0.00405388)
(-0.0193148 0.002 -0.00345514)
(-0.0177593 0.002 -0.00325)
(-0.0119634 0.002 -0.0076985)
(-0.0147592 0.002 -0.0040539)
(-0.0162069 0.002 -0.0034543)
(-0.013513 0.002 -0.00501106)
(-0.012563 0.002 -0.0062503)
(0.00148663 -0.0075 -0.02375)
(4.8963e-05 -0.0075 -0.02375)
(0.0029119 -0.0075 -0.02375)
(0.0042271 -0.0075 -0.02375)
(0.0054374 -0.0075 -0.02375)
(0.0065 -0.0075 -0.02375)
(4.8963e-05 0.0225 -0.01625)
(0.00104896 0.0225 -0.0161782)
(0.0021601 0.0225 -0.015924)
(0.0032438 0.0225 -0.0154784)
(0.0043334 0.0225 -0.0147856)
(0.0054108 0.0225 -0.01375)
(0.0061985 0.0225 -0.0125942)
(0.006682 0.0225 -0.0114866)
(0.0069557 0.0225 -0.010389)
(0.007049 0.0225 -0.00925)
(0.0017277 5.66e-08 -0.0110345)
(0.00141894 5.66e-08 -0.0112812)
(0.00104896 -6.98e-16 -0.0114866)
(4.8963e-05 -0.0075 0.00225)
(0.00149694 -0.0075 0.00225)
(0.0029119 -0.0075 0.00225)
(0.0042271 -0.0075 0.00225)
(0.0054374 -0.0075 0.00225)
(0.0065 -0.0075 0.00225)
(0.00104896 0.0225 -0.00232179)
(4.8963e-05 0.0225 -0.00225)
(0.0021601 0.0225 -0.00257594)
(0.0032438 0.0225 -0.0030216)
(0.0043334 0.0225 -0.00371436)
(0.0054108 0.0225 -0.00475)
(0.006682 0.0225 -0.00701337)
(0.0061985 0.0225 -0.0059058)
(0.0069557 0.0225 -0.0081109)
(0.0017277 5.66e-08 -0.0074655)
(0.0009519 2.24e-11 -0.0069725)
(4.8963e-05 6.26e-10 -0.0068)
(-0.00148663 -0.0075 -0.02375)
(-0.0029119 -0.0075 -0.02375)
(-0.0042271 -0.0075 -0.02375)
(-0.0054374 -0.0075 -0.02375)
(-0.0065 -0.0075 -0.02375)
(-0.00104896 0.0225 -0.0161782)
(-0.0021601 0.0225 -0.015924)
(-0.0032438 0.0225 -0.0154784)
(-0.0043334 0.0225 -0.0147856)
(-0.0054108 0.0225 -0.01375)
(-0.006682 0.0225 -0.0114866)
(-0.0061985 0.0225 -0.0125942)
(-0.0069557 0.0225 -0.010389)
(-0.007049 0.0225 -0.00925)
(-0.0017277 5.66e-08 -0.0110345)
(-0.00141894 5.66e-08 -0.0112812)
(-0.00104896 -6.98e-16 -0.0114866)
(-0.00149694 -0.0075 0.00225)
(-0.0029119 -0.0075 0.00225)
(-0.0042271 -0.0075 0.00225)
(-0.0054374 -0.0075 0.00225)
(-0.0065 -0.0075 0.00225)
(-0.00104896 0.0225 -0.00232179)
(-0.0021601 0.0225 -0.00257594)
(-0.0032438 0.0225 -0.0030216)
(-0.0043334 0.0225 -0.00371436)
(-0.0054108 0.0225 -0.00475)
(-0.0061985 0.0225 -0.0059058)
(-0.006682 0.0225 -0.00701337)
(-0.0069557 0.0225 -0.0081109)
(-0.0017277 5.66e-08 -0.0074655)
(-0.0009519 2.24e-11 -0.0069725)
(4.8963e-05 0.0065 -0.01625)
(0.00104896 0.0065 -0.0161782)
(0.00104896 0.0085771 -0.0161782)
(4.8963e-05 0.0085771 -0.01625)
(0.0021601 0.0065 -0.015924)
(0.0021601 0.0085771 -0.015924)
(0.0032438 0.0065 -0.0154784)
(0.0032438 0.0085771 -0.0154784)
(0.0043334 0.0065 -0.0147856)
(0.0043334 0.0085771 -0.0147856)
(0.0054108 0.0065 -0.01375)
(0.0054108 0.0085771 -0.01375)
(0.0061985 0.0065 -0.0125942)
(0.006682 0.0065 -0.0114866)
(0.006682 0.0085771 -0.0114866)
(0.0061985 0.0085771 -0.0125942)
(0.0069557 0.0065 -0.010389)
(0.0069557 0.0085771 -0.010389)
(0.007049 0.0065 -0.00925)
(0.007049 0.0085771 -0.00925)
(0.00104896 0.0065 -0.0023218)
(4.8963e-05 0.0065 -0.00225)
(4.8963e-05 0.0085771 -0.00225)
(0.00104896 0.0085771 -0.0023218)
(0.0021601 0.0065 -0.00257594)
(0.0021601 0.0085771 -0.00257594)
(0.0032438 0.0065 -0.0030216)
(0.0032438 0.0085771 -0.0030216)
(0.0043334 0.0065 -0.00371436)
(0.0043334 0.0085771 -0.00371436)
(0.0054108 0.0065 -0.00475)
(0.0054108 0.0085771 -0.00475)
(0.006682 0.0065 -0.00701337)
(0.0061985 0.0065 -0.00590579)
(0.0061985 0.0085771 -0.00590579)
(0.006682 0.0085771 -0.00701337)
(0.0069557 0.0065 -0.0081109)
(0.0069557 0.0085771 -0.0081109)
(-0.00104896 0.0065 -0.0161782)
(-0.00104896 0.0085771 -0.0161782)
(-0.0021601 0.0065 -0.015924)
(-0.0021601 0.0085771 -0.015924)
(-0.0032438 0.0065 -0.0154784)
(-0.0032438 0.0085771 -0.0154784)
(-0.0043334 0.0065 -0.0147856)
(-0.0043334 0.0085771 -0.0147856)
(-0.0054108 0.0065 -0.01375)
(-0.0054108 0.0085771 -0.01375)
(-0.006682 0.0065 -0.0114866)
(-0.0061985 0.0065 -0.0125942)
(-0.0061985 0.0085771 -0.0125942)
(-0.006682 0.0085771 -0.0114866)
(-0.0069557 0.0065 -0.010389)
(-0.0069557 0.0085771 -0.010389)
(-0.007049 0.0065 -0.00925)
(-0.007049 0.0085771 -0.00925)
(-0.00104896 0.0065 -0.0023218)
(-0.00104896 0.0085771 -0.0023218)
(-0.0021601 0.0065 -0.00257594)
(-0.0021601 0.0085771 -0.00257594)
(-0.0032438 0.0065 -0.0030216)
(-0.0032438 0.0085771 -0.0030216)
(-0.0043334 0.0065 -0.00371436)
(-0.0043334 0.0085771 -0.00371436)
(-0.0054108 0.0065 -0.00475)
(-0.0054108 0.0085771 -0.00475)
(-0.0061985 0.0065 -0.00590579)
(-0.006682 0.0065 -0.00701337)
(-0.006682 0.0085771 -0.00701337)
(-0.0061985 0.0085771 -0.00590579)
(-0.0069557 0.0065 -0.0081109)
(-0.0069557 0.0085771 -0.0081109)
(-0.0120291 -0.0075 0.00225)
(-0.0088096 -0.0075 0.00225)
(0.025665 -0.0075 -0.0068919)
(0.0260093 -0.0075 -0.00925)
(0.024661 -0.0075 -0.0047304)
(0.0230815 -0.0075 -0.0029463)
(0.0210577 -0.0075 -0.00168803)
(0.0194085 -0.0075 -0.0009687)
(0.0177593 -0.0075 -0.000249369)
(0.0139774 -0.0075 0.00140021)
(0.0158684 -0.0075 0.00057542)
(-0.0139919 -0.0075 -0.020182)
(-0.0159418 -0.0075 -0.0192534)
(-0.025665 -0.0075 -0.0116081)
(-0.0260093 -0.0075 -0.00925)
(-0.024661 -0.0075 -0.0137696)
(-0.0230815 -0.0075 -0.0155537)
(-0.0210577 -0.0075 -0.016812)
(-0.01945 -0.0075 -0.0175827)
(-0.0177593 -0.0075 -0.0183878)
(0.0088096 -0.0075 0.00225)
(0.0120291 -0.0075 0.00225)
(0.00096135 0.00040932 -0.0115238)
(0.00074085 0.0007218 -0.0116002)
(0.000427704 0.00092555 -0.0116705)
(4.8963e-05 0.00100006 -0.0116999)
(4.8963e-05 -0.0075 -0.01825)
(0.00139314 -0.0075 -0.018149)
(0.00270178 -0.0075 -0.01785)
(0.0039601 -0.0075 -0.0173557)
(0.0050592 -0.0075 -0.0167264)
(0.006294 -0.0075 -0.0157307)
(0.00746649 -0.0075 -0.014347)
(0.0083333 -0.0075 -0.012767)
(0.0088811 -0.0075 -0.01098)
(0.009049 -0.0075 -0.00925)
(0.0177593 -0.0075 -0.0183878)
(0.0159418 -0.0075 -0.0192534)
(0.0092624 -0.0075 -0.0224344)
(0.0117868 -0.0075 -0.021232)
(0.0139919 -0.0075 -0.020182)
(0.00139314 -0.0075 -0.000350945)
(4.8963e-05 -0.0075 -0.00025)
(0.00270178 -0.0075 -0.00064985)
(0.0039601 -0.0075 -0.00114427)
(0.0050592 -0.0075 -0.00177355)
(0.006294 -0.0075 -0.00276926)
(0.0083333 -0.0075 -0.005733)
(0.00746649 -0.0075 -0.0041529)
(0.0088811 -0.0075 -0.00752)
(0.0210093 0.002 -0.00925)
(0.0208985 0.002 -0.0100915)
(0.0205738 0.002 -0.0108751)
(0.0200574 0.002 -0.011548)
(0.0193844 0.002 -0.0120646)
(0.0186019 0.002 -0.0123889)
(0.0177593 0.002 -0.0125)
(0.0169184 0.002 -0.0123893)
(0.0161343 0.002 -0.0120645)
(0.0154592 0.002 -0.011546)
(0.0149446 0.002 -0.0108748)
(0.01462 0.002 -0.0100904)
(0.0145093 0.002 -0.00925)
(0.0208985 -0.0075 -0.0100915)
(0.0210093 -0.0075 -0.00925)
(0.0205738 -0.0075 -0.0108751)
(0.0200574 -0.0075 -0.011548)
(0.0193844 -0.0075 -0.0120646)
(0.0186019 -0.0075 -0.0123889)
(0.0177593 -0.0075 -0.0125)
(0.0169184 -0.0075 -0.0123893)
(0.0161343 -0.0075 -0.0120645)
(0.0154592 -0.0075 -0.011546)
(0.0149446 -0.0075 -0.0108748)
(0.01462 -0.0075 -0.0100904)
(0.0145093 -0.0075 -0.00925)
(0.0208985 0.002 -0.0084085)
(0.0205738 0.002 -0.0076249)
(0.0200574 0.002 -0.0069519)
(0.0193844 0.002 -0.0064354)
(0.0186019 0.002 -0.0061111)
(0.0177593 0.002 -0.006)
(0.0169184 0.002 -0.00611067)
(0.0161343 0.002 -0.0064355)
(0.0154592 0.002 -0.0069539)
(0.0149446 0.002 -0.00762518)
(0.01462 0.002 -0.0084096)
(0.0208985 -0.0075 -0.0084085)
(0.0205738 -0.0075 -0.0076249)
(0.0200574 -0.0075 -0.0069519)
(0.0193844 -0.0075 -0.0064354)
(0.0186019 -0.0075 -0.0061111)
(0.0177593 -0.0075 -0.006)
(0.0169184 -0.0075 -0.00611067)
(0.0161343 -0.0075 -0.0064355)
(0.0154592 -0.0075 -0.0069539)
(0.0149446 -0.0075 -0.00762518)
(0.01462 -0.0075 -0.0084096)
(-0.00096135 0.00040932 -0.0115238)
(-0.00074085 0.0007218 -0.0116002)
(-0.000427704 0.00092555 -0.0116705)
(-0.00139314 -0.0075 -0.018149)
(-0.00270178 -0.0075 -0.01785)
(-0.0039601 -0.0075 -0.0173557)
(-0.0050592 -0.0075 -0.0167264)
(-0.006294 -0.0075 -0.0157307)
(-0.0083333 -0.0075 -0.012767)
(-0.00746649 -0.0075 -0.014347)
(-0.0088811 -0.0075 -0.01098)
(-0.009049 -0.0075 -0.00925)
(-0.0092624 -0.0075 -0.0224344)
(-0.0117868 -0.0075 -0.021232)
(-0.00139314 -0.0075 -0.000350945)
(-0.00270178 -0.0075 -0.00064985)
(-0.0039601 -0.0075 -0.00114427)
(-0.0050592 -0.0075 -0.00177355)
(-0.006294 -0.0075 -0.00276926)
(-0.00746649 -0.0075 -0.0041529)
(-0.0083333 -0.0075 -0.005733)
(-0.0088811 -0.0075 -0.00752)
(-0.0208985 0.002 -0.0100915)
(-0.0210093 0.002 -0.00925)
(-0.0205738 0.002 -0.0108751)
(-0.0200574 0.002 -0.011548)
(-0.0193844 0.002 -0.0120646)
(-0.0186019 0.002 -0.0123889)
(-0.0177593 0.002 -0.0125)
(-0.0169184 0.002 -0.0123893)
(-0.0161343 0.002 -0.0120645)
(-0.0154592 0.002 -0.011546)
(-0.0149446 0.002 -0.0108748)
(-0.01462 0.002 -0.0100904)
(-0.0145093 0.002 -0.00925)
(-0.0210093 -0.0075 -0.00925)
(-0.0208985 -0.0075 -0.0100915)
(-0.0205738 -0.0075 -0.0108751)
(-0.0200574 -0.0075 -0.011548)
(-0.0193844 -0.0075 -0.0120646)
(-0.0186019 -0.0075 -0.0123889)
(-0.0177593 -0.0075 -0.0125)
(-0.0169184 -0.0075 -0.0123893)
(-0.0161343 -0.0075 -0.0120645)
(-0.0154592 -0.0075 -0.011546)
(-0.0149446 -0.0075 -0.0108748)
(-0.01462 -0.0075 -0.0100904)
(-0.0145093 -0.0075 -0.00925)
(-0.0208985 0.002 -0.0084085)
(-0.0205738 0.002 -0.0076249)
(-0.0200574 0.002 -0.0069519)
(-0.0193844 0.002 -0.0064354)
(-0.0186019 0.002 -0.0061111)
(-0.0177593 0.002 -0.006)
(-0.0169184 0.002 -0.00611067)
(-0.0161343 0.002 -0.0064355)
(-0.0154592 0.002 -0.0069539)
(-0.0149446 0.002 -0.00762518)
(-0.01462 0.002 -0.0084096)
(-0.0208985 -0.0075 -0.0084085)
(-0.0205738 -0.0075 -0.0076249)
(-0.0200574 -0.0075 -0.0069519)
(-0.0193844 -0.0075 -0.0064354)
(-0.0186019 -0.0075 -0.0061111)
(-0.0177593 -0.0075 -0.006)
(-0.0169184 -0.0075 -0.00611067)
(-0.0161343 -0.0075 -0.0064355)
(-0.0154592 -0.0075 -0.0069539)
(-0.0149446 -0.0075 -0.00762518)
(-0.01462 -0.0075 -0.0084096)
(-0.0177593 -0.0075 -0.000249369)
(-0.0158684 -0.0075 0.00057542)
(-0.0139774 -0.0075 0.00140021)
(0.025665 -0.0075 -0.0116081)
(0.024661 -0.0075 -0.0137696)
(0.0230815 -0.0075 -0.0155537)
(0.0210577 -0.0075 -0.016812)
(0.01945 -0.0075 -0.0175827)
(-0.025665 -0.0075 -0.0068919)
(-0.024661 -0.0075 -0.0047304)
(-0.0230815 -0.0075 -0.0029463)
(-0.0210577 -0.0075 -0.00168803)
(-0.0194085 -0.0075 -0.0009687)
(0.00104896 -3.91e-18 -0.01375)
(0.00097284 0.00038268 -0.01375)
(0.00075607 0.0007071 -0.01375)
(0.000431646 0.00092388 -0.01375)
(4.8963e-05 0.001 -0.01375)
(0.00097284 -0.00038268 -0.01375)
(0.00075607 -0.0007071 -0.01375)
(0.000431646 -0.00092388 -0.01375)
(4.8963e-05 -0.001 -0.01375)
(0.0177593 0.002 -0.0183878)
(0.0159418 0.002 -0.0192534)
(0.0092624 0.002 -0.0224344)
(0.0117868 0.002 -0.021232)
(0.0139919 0.002 -0.020182)
(0.0260093 0.002 -0.00925)
(0.025665 0.002 -0.0116081)
(0.024661 0.002 -0.0137696)
(0.0230815 0.002 -0.0155537)
(0.0210577 0.002 -0.016812)
(0.01945 0.002 -0.0175827)
(0.025665 0.002 -0.0068919)
(0.024661 0.002 -0.0047304)
(0.0230815 0.002 -0.0029463)
(0.0210577 0.002 -0.00168803)
(0.0194085 0.002 -0.0009687)
(0.0177593 0.002 -0.000249369)
(0.0158684 0.002 0.00057542)
(0.0088096 0.002 0.00225)
(0.0120291 0.002 0.00225)
(0.0139774 0.002 0.00140021)
(-0.00097284 0.00038268 -0.01375)
(-0.00104896 -3.91e-18 -0.01375)
(-0.00075607 0.0007071 -0.01375)
(-0.000431646 0.00092388 -0.01375)
(-0.00097284 -0.00038268 -0.01375)
(-0.00075607 -0.0007071 -0.01375)
(-0.000431646 -0.00092388 -0.01375)
(-0.0159418 0.002 -0.0192534)
(-0.0177593 0.002 -0.0183878)
(-0.0092624 0.002 -0.0224344)
(-0.0117868 0.002 -0.021232)
(-0.0139919 0.002 -0.020182)
(-0.025665 0.002 -0.0116081)
(-0.0260093 0.002 -0.00925)
(-0.024661 0.002 -0.0137696)
(-0.0230815 0.002 -0.0155537)
(-0.0210577 0.002 -0.016812)
(-0.01945 0.002 -0.0175827)
(-0.025665 0.002 -0.0068919)
(-0.024661 0.002 -0.0047304)
(-0.0230815 0.002 -0.0029463)
(-0.0210577 0.002 -0.00168803)
(-0.0194085 0.002 -0.0009687)
(-0.0177593 0.002 -0.000249369)
(-0.0158684 0.002 0.00057542)
(-0.0088096 0.002 0.00225)
(-0.0139774 0.002 0.00140021)
(-0.0120291 0.002 0.00225)
(0.00312345 -0.0275 -0.01375)
(0.00391928 -0.0275 -0.013087)
(0.00429036 -0.0275 -0.0126724)
(0.00391928 -0.0275 -0.0054129)
(0.00312345 -0.0275 -0.00475)
(0.00429036 -0.0275 -0.00582756)
(-0.00391928 -0.0275 -0.013087)
(-0.00312345 -0.0275 -0.01375)
(-0.00429036 -0.0275 -0.0126724)
(-0.00312345 -0.0275 -0.00475)
(-0.00391928 -0.0275 -0.0054129)
(-0.00429036 -0.0275 -0.00582756)
(0.00104896 0.00438748 -0.02375)
(4.8963e-05 0.0045 -0.02375)
(4.8963e-05 0.0075 -0.02375)
(0.00148663 0.0075 -0.02375)
(0.00216496 0.00397147 -0.02375)
(0.0029119 0.0075 -0.02375)
(0.00323885 0.00317405 -0.02375)
(0.0042271 0.0075 -0.02375)
(0.004549 -6.84e-16 -0.02375)
(0.0043992 0.00115128 -0.02375)
(0.0039599 0.00222589 -0.02375)
(0.0054374 0.0075 -0.02375)
(0.0065 0.003375 -0.02375)
(0.0065 0.00475 -0.02375)
(0.0065 0.006125 -0.02375)
(4.8963e-05 -0.0045 -0.02375)
(0.00104896 -0.00438748 -0.02375)
(0.00216496 -0.00397147 -0.02375)
(0.00323885 -0.00317405 -0.02375)
(0.0043992 -0.00115128 -0.02375)
(0.0039599 -0.00222589 -0.02375)
(4.8963e-05 -0.0175 -0.01825)
(0.00139314 -0.0175 -0.018149)
(0.00270178 -0.0175 -0.01785)
(0.0039601 -0.0175 -0.0173557)
(0.0050592 -0.0175 -0.0167264)
(0.006294 -0.0175 -0.0157307)
(0.00746649 -0.0175 -0.014347)
(0.0083333 -0.0175 -0.012767)
(0.0088811 -0.0175 -0.01098)
(0.009049 -0.0175 -0.00925)
(0.00104896 -0.0275 -0.0114868)
(4.8962e-05 -0.0275 -0.0117)
(0.00178137 -0.0275 -0.0109825)
(0.00231247 -0.0275 -0.0101877)
(0.00249896 -0.0275 -0.00925)
(0.0047034 -0.0275 -0.0120852)
(0.00501887 -0.0275 -0.0114866)
(0.0053672 -0.0275 -0.010441)
(0.005499 -0.0275 -0.00925)
(4.8963e-05 -0.0275 -0.0147)
(0.00109717 -0.0275 -0.0145982)
(0.0020612 -0.0275 -0.014315)
(0.0015038 0.0225 -0.0183849)
(4.8963e-05 0.0225 -0.0185)
(0.00284678 0.0225 -0.0180667)
(0.00408266 0.0225 -0.017574)
(0.0052903 0.0225 -0.0168717)
(0.00635 0.0225 -0.016022)
(0.008537 0.0225 -0.0129264)
(0.0075997 0.0225 -0.014593)
(0.009116 0.0225 -0.011081)
(0.009299 0.0225 -0.00925)
(0.00074085 -0.0007218 -0.0116002)
(0.000427704 -0.00092555 -0.0116705)
(4.8963e-05 -0.00100006 -0.0116999)
(0.00149694 0.0075 0.00225)
(4.8963e-05 0.0075 0.00225)
(0.0029119 0.0075 0.00225)
(0.0042271 0.0075 0.00225)
(0.0054374 0.0075 0.00225)
(0.0065 0.003375 0.00225)
(0.0065 0.00475 0.00225)
(0.0065 0.006125 0.00225)
(0.00139314 -0.0175 -0.000350945)
(4.8963e-05 -0.0175 -0.00025)
(0.00270178 -0.0175 -0.00064985)
(0.0039601 -0.0175 -0.00114427)
(0.0050592 -0.0175 -0.00177355)
(0.006294 -0.0175 -0.00276926)
(0.0083333 -0.0175 -0.005733)
(0.00746649 -0.0175 -0.0041529)
(0.0088811 -0.0175 -0.00752)
(4.8962e-05 -0.0275 -0.0068)
(0.00104896 -0.0275 -0.0070132)
(0.00178137 -0.0275 -0.0075175)
(0.00231247 -0.0275 -0.00831229)
(0.00501887 -0.0275 -0.00701337)
(0.0047034 -0.0275 -0.0064148)
(0.0053672 -0.0275 -0.008059)
(0.00109717 -0.0275 -0.00390175)
(4.8963e-05 -0.0275 -0.0038)
(0.0020612 -0.0275 -0.00418508)
(4.8963e-05 0.0225 0)
(0.0015038 0.0225 -0.000115125)
(0.00284678 0.0225 -0.00043327)
(0.00408266 0.0225 -0.00092583)
(0.0052903 0.0225 -0.0016283)
(0.00635 0.0225 -0.002478)
(0.0075997 0.0225 -0.0039069)
(0.008537 0.0225 -0.0055736)
(0.009116 0.0225 -0.007419)
(-0.00104896 0.00438748 -0.02375)
(-0.00148663 0.0075 -0.02375)
(-0.00216496 0.00397147 -0.02375)
(-0.0029119 0.0075 -0.02375)
(-0.00323885 0.00317405 -0.02375)
(-0.0042271 0.0075 -0.02375)
(-0.0043992 0.00115128 -0.02375)
(-0.004549 -6.84e-16 -0.02375)
(-0.0039599 0.00222589 -0.02375)
(-0.0054374 0.0075 -0.02375)
(-0.0065 0.003375 -0.02375)
(-0.0065 0.00475 -0.02375)
(-0.0065 0.006125 -0.02375)
(-0.00104896 -0.00438748 -0.02375)
(-0.00216496 -0.00397147 -0.02375)
(-0.00323885 -0.00317405 -0.02375)
(-0.0043992 -0.00115128 -0.02375)
(-0.0039599 -0.00222589 -0.02375)
(-0.00139314 -0.0175 -0.018149)
(-0.00270178 -0.0175 -0.01785)
(-0.0039601 -0.0175 -0.0173557)
(-0.0050592 -0.0175 -0.0167264)
(-0.006294 -0.0175 -0.0157307)
(-0.0083333 -0.0175 -0.012767)
(-0.00746649 -0.0175 -0.014347)
(-0.0088811 -0.0175 -0.01098)
(-0.009049 -0.0175 -0.00925)
(-0.00104896 -0.0275 -0.0114868)
(-0.00178137 -0.0275 -0.0109825)
(-0.00231247 -0.0275 -0.0101877)
(-0.00249896 -0.0275 -0.00925)
(-0.00501887 -0.0275 -0.0114866)
(-0.0047034 -0.0275 -0.0120852)
(-0.0053672 -0.0275 -0.010441)
(-0.005499 -0.0275 -0.00925)
(-0.00109717 -0.0275 -0.0145982)
(-0.0020612 -0.0275 -0.014315)
(-0.0015038 0.0225 -0.0183849)
(-0.00284678 0.0225 -0.0180667)
(-0.00408266 0.0225 -0.017574)
(-0.0052903 0.0225 -0.0168717)
(-0.00635 0.0225 -0.016022)
(-0.0075997 0.0225 -0.014593)
(-0.008537 0.0225 -0.0129264)
(-0.009116 0.0225 -0.011081)
(-0.009299 0.0225 -0.00925)
(-0.000427704 -0.00092555 -0.0116705)
(-0.00074085 -0.0007218 -0.0116002)
(-0.00149694 0.0075 0.00225)
(-0.0029119 0.0075 0.00225)
(-0.0042271 0.0075 0.00225)
(-0.0054374 0.0075 0.00225)
(-0.0065 0.003375 0.00225)
(-0.0065 0.00475 0.00225)
(-0.0065 0.006125 0.00225)
(-0.00139314 -0.0175 -0.000350945)
(-0.00270178 -0.0175 -0.00064985)
(-0.0039601 -0.0175 -0.00114427)
(-0.0050592 -0.0175 -0.00177355)
(-0.006294 -0.0175 -0.00276926)
(-0.00746649 -0.0175 -0.0041529)
(-0.0083333 -0.0175 -0.005733)
(-0.0088811 -0.0175 -0.00752)
(-0.00104896 -0.0275 -0.0070132)
(-0.00178137 -0.0275 -0.0075175)
(-0.00231247 -0.0275 -0.00831229)
(-0.0047034 -0.0275 -0.0064148)
(-0.00501887 -0.0275 -0.00701337)
(-0.0053672 -0.0275 -0.008059)
(-0.00109717 -0.0275 -0.00390175)
(-0.0020612 -0.0275 -0.00418508)
(-0.0015038 0.0225 -0.000115125)
(-0.00284678 0.0225 -0.00043327)
(-0.00408266 0.0225 -0.00092583)
(-0.0052903 0.0225 -0.0016283)
(-0.00635 0.0225 -0.002478)
(-0.008537 0.0225 -0.0055736)
(-0.0075997 0.0225 -0.0039069)
(-0.009116 0.0225 -0.007419)
(0.0065 0.0075 -0.00211917)
(0.0065 0.0075 0.000312658)
(-0.0065 0.0075 -0.0163808)
(-0.0065 0.0075 -0.0188127)
(-0.0065 0.0075 -0.0212445)
(0.0065 0.0075 -0.0163808)
(0.0065 0.0075 -0.0188127)
(0.0065 0.0075 -0.0212445)
(-0.0065 0.0075 -0.00211917)
(-0.0065 0.0075 0.000312658)
(0.00231247 0.0065 -0.0101876)
(0.00178137 0.0065 -0.0109824)
(0.00249896 0.0065 -0.00925)
(-0.00231247 0.0065 -0.0083124)
(-0.00178137 0.0065 -0.00751759)
(-0.00249896 0.0065 -0.00925)
(0.00104896 0.0065 -0.0114866)
(4.8963e-05 0.0065 -0.0116999)
(4.8963e-05 0.0065 -0.0068001)
(0.00104896 0.0065 -0.00701337)
(0.00178137 0.0065 -0.00751759)
(-0.00104896 0.0065 -0.0114866)
(-0.00178137 0.0065 -0.0109824)
(-0.00104896 0.0065 -0.00701337)
(0.00231247 0.0065 -0.0083124)
(-0.00231247 0.0065 -0.0101876)
(0.002302 0.00389537 -0.01375)
(0.003234 0.00317894 -0.01375)
(0.003234 -0.00317894 -0.01375)
(0.002302 -0.00389537 -0.01375)
(-0.003234 0.00317894 -0.01375)
(-0.002302 0.00389537 -0.01375)
(-0.002302 -0.00389537 -0.01375)
(-0.003234 -0.00317894 -0.01375)
(0.0096058 0.002 -0.011181)
(0.009799 0.002 -0.00925)
(0.0065 0.002 -0.0165607)
(0.0079468 0.002 -0.0149673)
(0.0065 0.002 -0.018933)
(0.0065 0.002 -0.0213056)
(0.0089605 0.002 -0.0132056)
(0.0096058 0.002 -0.007319)
(0.0079468 0.002 -0.0035327)
(0.0065 0.002 -0.00193928)
(0.0065 0.002 0.00043318)
(0.0089605 0.002 -0.00529437)
(-0.009799 0.002 -0.00925)
(-0.0096058 0.002 -0.011181)
(-0.0079468 0.002 -0.0149673)
(-0.0065 0.002 -0.0165607)
(-0.0065 0.002 -0.018933)
(-0.0065 0.002 -0.0213056)
(-0.0089605 0.002 -0.0132056)
(-0.0096058 0.002 -0.007319)
(-0.0065 0.002 -0.00193928)
(-0.0079468 0.002 -0.0035327)
(-0.0065 0.002 0.00043318)
(-0.0089605 0.002 -0.00529437)
(0.0039486 0.00224557 -0.01375)
(0.0039486 -0.00224557 -0.01375)
(-0.0039486 0.00224557 -0.01375)
(-0.0039486 -0.00224557 -0.01375)
(0.00109717 -0.0175 -0.0145982)
(4.8963e-05 -0.0175 -0.0147)
(0.0020612 -0.0175 -0.014315)
(0.00312345 -0.0175 -0.01375)
(0.00391928 -0.0175 -0.013087)
(0.00429036 -0.0175 -0.0126724)
(0.00501887 -0.0175 -0.0114866)
(0.0047034 -0.0175 -0.0120852)
(0.0053672 -0.0175 -0.010441)
(0.005499 -0.0175 -0.00925)
(4.8963e-05 -0.0175 -0.0038)
(0.00109717 -0.0175 -0.00390175)
(0.0020612 -0.0175 -0.00418508)
(0.00312345 -0.0175 -0.00475)
(0.00391928 -0.0175 -0.0054129)
(0.00429036 -0.0175 -0.00582756)
(0.0047034 -0.0175 -0.0064148)
(0.00501887 -0.0175 -0.00701337)
(0.0053672 -0.0175 -0.008059)
(-0.00109717 -0.0175 -0.0145982)
(-0.0020612 -0.0175 -0.014315)
(-0.00312345 -0.0175 -0.01375)
(-0.00391928 -0.0175 -0.013087)
(-0.00429036 -0.0175 -0.0126724)
(-0.0047034 -0.0175 -0.0120852)
(-0.00501887 -0.0175 -0.0114866)
(-0.0053672 -0.0175 -0.010441)
(-0.005499 -0.0175 -0.00925)
(-0.00109717 -0.0175 -0.00390175)
(-0.0020612 -0.0175 -0.00418508)
(-0.00312345 -0.0175 -0.00475)
(-0.00391928 -0.0175 -0.0054129)
(-0.00429036 -0.0175 -0.00582756)
(-0.00501887 -0.0175 -0.00701337)
(-0.0047034 -0.0175 -0.0064148)
(-0.0053672 -0.0175 -0.008059)
(0.0044074 0.00111986 -0.01375)
(0.004549 -3.91e-18 -0.01375)
(4.8963e-05 0.0044999 -0.01375)
(0.00118068 0.00435537 -0.01375)
(0.0044074 -0.00111986 -0.01375)
(0.00118068 -0.00435537 -0.01375)
(4.8963e-05 -0.0044999 -0.01375)
(-0.0044074 0.00111986 -0.01375)
(-0.004549 -3.91e-18 -0.01375)
(-0.00118068 0.00435537 -0.01375)
(-0.0044074 -0.00111986 -0.01375)
(-0.00118068 -0.00435537 -0.01375)
(4.8963e-05 0.0075 -0.0188659)
(0.00149694 0.0075 -0.0187562)
(0.0029119 0.0075 -0.0184298)
(0.0042271 0.0075 -0.0179107)
(0.0054374 0.0075 -0.0172143)
(0.00149694 0.0075 0.000256209)
(4.8963e-05 0.0075 0.00036585)
(0.0029119 0.0075 -7.0227e-05)
(0.0042271 0.0075 -0.0005893)
(0.0054374 0.0075 -0.00128575)
(-0.00149694 0.0075 -0.0187562)
(-0.0029119 0.0075 -0.0184298)
(-0.0042271 0.0075 -0.0179107)
(-0.0054374 0.0075 -0.0172143)
(-0.00149694 0.0075 0.000256209)
(-0.0029119 0.0075 -7.0227e-05)
(-0.0042271 0.0075 -0.0005893)
(-0.0054374 0.0075 -0.00128575)
)


// edges:

756
(
(62 63)
(64 62)
(65 64)
(66 65)
(67 66)
(68 69)
(69 70)
(70 71)
(71 72)
(72 73)
(74 75)
(73 74)
(75 76)
(76 77)
(9 78)
(81 82)
(82 83)
(83 84)
(84 85)
(85 86)
(87 88)
(89 87)
(90 89)
(91 90)
(92 91)
(93 94)
(94 92)
(95 93)
(77 95)
(96 17)
(97 96)
(63 99)
(99 100)
(100 101)
(101 102)
(102 103)
(104 68)
(105 104)
(106 105)
(107 106)
(108 107)
(109 110)
(110 108)
(111 109)
(112 111)
(113 35)
(116 81)
(117 116)
(118 117)
(119 118)
(120 119)
(88 121)
(121 122)
(122 123)
(123 124)
(124 125)
(126 127)
(125 126)
(127 128)
(128 112)
(44 129)
(129 130)
(203 204)
(205 206)
(207 205)
(208 207)
(209 208)
(210 209)
(211 210)
(212 213)
(214 215)
(216 217)
(218 216)
(219 218)
(220 219)
(221 220)
(222 221)
(223 224)
(80 225)
(225 226)
(226 227)
(227 228)
(239 240)
(241 67)
(242 241)
(243 242)
(253 254)
(254 255)
(255 256)
(256 257)
(257 258)
(258 259)
(259 260)
(260 261)
(261 262)
(262 263)
(263 264)
(264 265)
(266 267)
(268 266)
(269 268)
(270 269)
(271 270)
(272 271)
(273 272)
(274 273)
(275 274)
(276 275)
(277 276)
(278 277)
(279 253)
(280 279)
(281 280)
(282 281)
(283 282)
(284 283)
(285 284)
(286 285)
(287 286)
(288 287)
(289 288)
(265 289)
(267 290)
(290 291)
(291 292)
(292 293)
(293 294)
(294 295)
(295 296)
(296 297)
(297 298)
(298 299)
(299 300)
(300 278)
(213 211)
(86 223)
(224 212)
(301 115)
(302 301)
(303 302)
(228 303)
(215 222)
(103 313)
(313 314)
(314 214)
(323 324)
(325 323)
(326 325)
(327 326)
(328 327)
(329 328)
(330 329)
(331 330)
(332 331)
(333 332)
(334 333)
(335 334)
(336 337)
(337 338)
(338 339)
(339 340)
(340 341)
(341 342)
(342 343)
(343 344)
(344 345)
(345 346)
(346 347)
(347 348)
(324 349)
(349 350)
(350 351)
(351 352)
(352 353)
(353 354)
(354 355)
(355 356)
(356 357)
(357 358)
(358 359)
(359 335)
(360 336)
(361 360)
(362 361)
(363 362)
(364 363)
(365 364)
(366 365)
(367 366)
(368 367)
(369 368)
(370 369)
(348 370)
(371 372)
(204 120)
(373 203)
(240 243)
(206 374)
(374 375)
(375 376)
(376 377)
(377 378)
(378 239)
(217 379)
(379 380)
(380 381)
(381 382)
(382 383)
(383 371)
(372 373)
(384 385)
(385 386)
(386 387)
(387 388)
(389 384)
(390 389)
(391 390)
(392 391)
(393 394)
(395 4)
(396 395)
(397 396)
(394 397)
(398 399)
(399 400)
(400 401)
(401 402)
(402 403)
(403 393)
(404 398)
(405 404)
(406 405)
(407 406)
(408 407)
(409 408)
(410 409)
(5 411)
(412 413)
(413 410)
(414 415)
(416 414)
(417 416)
(388 417)
(415 418)
(418 419)
(419 420)
(420 392)
(421 422)
(6 423)
(423 424)
(424 425)
(425 421)
(426 427)
(428 426)
(429 428)
(430 429)
(431 430)
(422 431)
(427 432)
(432 433)
(433 434)
(434 435)
(435 436)
(436 437)
(437 438)
(439 7)
(440 441)
(438 440)
(442 443)
(443 444)
(445 446)
(447 445)
(411 412)
(448 449)
(450 448)
(451 452)
(452 453)
(441 439)
(454 455)
(456 457)
(458 454)
(457 459)
(460 458)
(459 461)
(462 463)
(463 464)
(464 460)
(461 465)
(466 4)
(467 466)
(468 467)
(465 0)
(0 468)
(469 470)
(470 471)
(471 472)
(473 462)
(474 473)
(472 474)
(475 476)
(476 477)
(477 478)
(478 479)
(479 480)
(481 482)
(480 481)
(482 483)
(483 484)
(485 486)
(487 485)
(488 487)
(489 488)
(490 491)
(444 490)
(491 492)
(492 493)
(494 495)
(495 496)
(496 442)
(497 498)
(499 497)
(500 499)
(501 500)
(502 501)
(503 504)
(504 502)
(505 503)
(506 505)
(507 508)
(508 509)
(510 511)
(512 510)
(513 512)
(514 513)
(5 515)
(515 516)
(516 517)
(517 1)
(1 514)
(518 519)
(520 518)
(521 520)
(522 521)
(523 522)
(524 525)
(525 523)
(526 524)
(484 526)
(527 528)
(528 529)
(529 530)
(530 489)
(531 532)
(532 447)
(533 531)
(493 533)
(534 535)
(536 534)
(446 536)
(537 538)
(538 539)
(539 540)
(540 541)
(541 542)
(543 544)
(542 543)
(544 545)
(545 506)
(455 546)
(547 456)
(546 548)
(549 547)
(548 550)
(551 549)
(552 553)
(554 552)
(550 554)
(555 551)
(6 556)
(556 557)
(557 558)
(558 2)
(2 555)
(559 469)
(560 559)
(561 560)
(553 562)
(562 563)
(563 561)
(564 475)
(565 564)
(566 565)
(567 566)
(568 567)
(569 570)
(570 568)
(571 569)
(572 571)
(486 573)
(573 574)
(574 575)
(575 576)
(577 578)
(578 450)
(579 577)
(580 579)
(581 494)
(582 581)
(449 582)
(498 583)
(583 584)
(584 585)
(585 586)
(586 587)
(588 589)
(587 588)
(589 590)
(590 591)
(592 593)
(509 592)
(511 594)
(594 595)
(595 596)
(596 597)
(598 7)
(599 598)
(600 599)
(597 3)
(3 600)
(519 601)
(601 602)
(602 603)
(603 604)
(604 605)
(606 607)
(605 606)
(607 608)
(608 572)
(609 527)
(610 609)
(611 610)
(576 611)
(612 613)
(453 612)
(613 614)
(614 580)
(535 615)
(615 616)
(616 451)
(617 537)
(618 617)
(619 618)
(620 619)
(621 620)
(622 623)
(623 621)
(624 622)
(591 624)
(625 626)
(626 1)
(627 628)
(628 629)
(629 2)
(630 631)
(631 632)
(632 0)
(633 634)
(634 3)
(635 636)
(637 635)
(638 639)
(640 638)
(641 642)
(636 641)
(643 644)
(644 645)
(642 646)
(646 647)
(648 643)
(639 648)
(645 649)
(649 637)
(647 650)
(650 640)
(78 79)
(79 80)
(114 113)
(115 114)
(131 132)
(132 135)
(135 137)
(137 139)
(139 141)
(143 144)
(141 143)
(144 147)
(147 149)
(151 152)
(155 151)
(157 155)
(159 157)
(161 159)
(163 164)
(164 161)
(167 163)
(149 167)
(169 131)
(171 169)
(173 171)
(175 173)
(177 175)
(179 180)
(180 177)
(183 179)
(185 183)
(152 187)
(187 189)
(189 191)
(191 193)
(193 195)
(197 198)
(195 197)
(198 201)
(201 185)
(229 230)
(230 231)
(231 232)
(232 233)
(233 234)
(235 236)
(234 235)
(236 237)
(237 238)
(244 245)
(246 244)
(247 246)
(248 247)
(249 248)
(250 251)
(251 249)
(252 250)
(238 252)
(304 229)
(305 304)
(306 305)
(307 306)
(308 307)
(309 310)
(310 308)
(311 309)
(312 311)
(245 315)
(315 316)
(316 317)
(317 318)
(318 319)
(320 321)
(319 320)
(321 322)
(322 312)
(651 652)
(653 654)
(655 656)
(657 658)
(659 660)
(661 662)
(663 661)
(664 663)
(4 664)
(662 665)
(665 659)
(660 666)
(667 668)
(668 669)
(669 5)
(670 667)
(666 670)
(671 672)
(673 674)
(674 675)
(675 676)
(676 6)
(677 673)
(672 677)
(678 671)
(679 680)
(681 679)
(7 681)
(680 682)
(682 678)
(652 683)
(684 653)
(685 655)
(658 686)
(687 688)
(689 687)
(690 689)
(691 690)
(692 691)
(693 694)
(694 692)
(695 693)
(696 695)
(697 698)
(698 699)
(699 700)
(700 701)
(701 702)
(703 704)
(702 703)
(704 705)
(705 696)
(688 706)
(706 707)
(707 708)
(708 709)
(709 710)
(711 712)
(710 711)
(712 713)
(713 714)
(715 697)
(716 715)
(717 716)
(718 717)
(719 718)
(720 721)
(721 719)
(722 720)
(714 722)