/*--------------------------------*- C++ -*----------------------------------*\
| =========                 |                                                 |
| \\      /  F ield         | OpenFOAM: The Open Source CFD Toolbox           |
|  \\    /   O peration     | Version:  dev                                   |
|   \\  /    A nd           | Web:      www.OpenFOAM.com                      |
|    \\/     M anipulation  |                                                 |
\*---------------------------------------------------------------------------*/
FoamFile
{
    version     2.0;
    format      binary;
    class       featureEdgeMesh;
    location    "constant/triSurface";
    object      flange.eMesh;
}
// * * * * * * * * * * * * * * * * * * * * * * * * * * * * * * * * * * * * * //


// points:

777
(9vz?Q~?RQ9vz?Q~RQ9vz?Q~?;Onb?9vzQ~?RQ9vzQ~RQ9vzQ~?;Onb?9vz?Mb`?pI9vz?Mb`?9`_9vzMb`?pI9vzMb`?9`_9vz?Mb`?RQ9vz?Mb`?;Onb?9vzMb`?RQ9vzMb`?;Onb?9vz?Q~?! Ɛ9D9/Q?A%ɼZI9vz?Q~?x}8\a9vzQ~?! Ɛ9D9/QA%ɼZI9vzQ~?x}8\a+xd?A%ɼlS.b?A%ɼEdB?Mb`?l]D?Mb`?5&P_J:?Mb`?vLݕॊ?Mb`?#<GЎ6r~/?Mb`?Zd;(?Mb`?OQ?Mb`?/$^S.b?A%ɼ|5Z(?Mb`?n2 E[T?Mb`?l}X?Mb`?enjO9?Mb`?qŜVA?Mb`?vLݕPIBǓ?Mb`?0Kώ(?Mb`?I>B}X?Mb`?dIyjO9?Mb`?GtŜVA?Mb`?Y ͚pPIBǓ?Mb`?)Ml6r~/?Mb`?9vj]D?Mb`?[vॊ?Mb`?s01LlP_J:?Mb`?Au~Қp(?Mb`?3-ztQ?Mb`?iq!yS.bA%ɼE+xdA%ɼl]DMb`?5&dBMb`?l񂿹ॊMb`?#<GЎP_J:Mb`?vLݕ6r~/Mb`?Zd;(Mb`?OQMb`?/$^S.bA%ɼ|5ZE[TMb`?l(Mb`?n2 }XMb`?enjO9Mb`?qŜVAMb`?vLݕPIBǓMb`?0Kώ(Mb`?I>B}XMb`?dIyjO9Mb`?GtŜVAMb`?Y ͚pPIBǓMb`?)Ml6r~/Mb`?9vj]DMb`?[vP_J:Mb`?Au~ҚpॊMb`?s01Ll(Mb`?3-ztQMb`?iq!y4`[X?Q~RQx޳	?Q~RQKxhg?Q~RQYoPq?Q~RQVEv?Q~RQx޳	?
ףp=
?p=
ף9D9/Q?
ףp=
?Wea?
ףp=
?aNEݽj?
ףp=
?Z#O|4q?
ףp=
?(GH )v?
ףp=
?)\(P,cy?
ףp=
?JʉɌ^{?
ףp=
?ZI$U}|?
ףp=
?Fi|?
ףp=
?lӿN\?~ucn>ލA^tG9w?W?~ucn>"zx޳	?Q~;Onb?OX?Q~;Onb?Kxhg?Q~;Onb?YoPq?Q~;Onb?VEv?Q~;Onb?9vz?Q~;Onb?9D9/Q?
ףp=
?!ȃ%cx޳	?
ףp=
?;Onbea?
ףp=
?A#eEݽj?
ףp=
?b%hO|4q?
ףp=
?7דmnH )v?
ףp=
?~jtsɌ^{?
ףp=
?jS,|P,cy?
ףp=
?0x$U}|?
ףp=
?rӿN\?~ucn>p$~o=1O?G@
=ɰ72|x޳	?/#Z>_Q{4`[XQ~RQKxhgQ~RQYoPqQ~RQVEvQ~RQ9D9/Q
ףp=
?Wea
ףp=
?aNEݽj
ףp=
?Z#O|4q
ףp=
?(GH )v
ףp=
?)\(Ɍ^{
ףp=
?ZIP,cy
ףp=
?Jʉ$U}|
ףp=
?Fi|
ףp=
?lӿN\~ucn>ލA^tG9w?W~ucn>"zOXQ~;Onb?KxhgQ~;Onb?YoPqQ~;Onb?VEvQ~;Onb?9vzQ~;Onb?9D9/Q
ףp=
?!ȃ%cea
ףp=
?A#eEݽj
ףp=
?b%hO|4q
ףp=
?7דmnH )v
ףp=
?~jtsP,cy
ףp=
?0xɌ^{
ףp=
?jS,|$U}|
ףp=
?rӿN\~ucn>p$~o=1OG@
=ɰ72|x޳	?9vz?p=
ף9D9/Q?9vz?W9D9/Q?ސ?Wx޳	?ސ?p=
ףea?9vz?aNea?ސ?aNEݽj?9vz?Z#Eݽj?ސ?Z#O|4q?9vz?(GO|4q?ސ?(GH )v?9vz?)\(H )v?ސ?)\(P,cy?9vz?JʉɌ^{?9vz?ZIɌ^{?ސ?ZIP,cy?ސ?Jʉ$U}|?9vz?F$U}|?ސ?Fi|?9vz?l񂿠i|?ސ?l9D9/Q?9vz?+*cx޳	?9vz?;Onbx޳	?ސ?;Onb9D9/Q?ސ?+*cea?9vz?A#eea?ސ?A#eEݽj?9vz?b%hEݽj?ސ?b%hO|4q?9vz?7דmnO|4q?ސ?7דmnH )v?9vz?~jtsH )v?ސ?~jtsɌ^{?9vz?jS,|P,cy?9vz?g@n0xP,cy?ސ?g@n0xɌ^{?ސ?jS,|$U}|?9vz?r$U}|?ސ?r9D9/Q9vz?W9D9/Qސ?Wea9vz?aNeaސ?aNEݽj9vz?Z#Eݽjސ?Z#O|4q9vz?(GO|4qސ?(GH )v9vz?)\(H )vސ?)\(Ɍ^{9vz?ZIP,cy9vz?JʉP,cyސ?JʉɌ^{ސ?ZI$U}|9vz?F$U}|ސ?Fi|9vz?l񂿠i|ސ?l9D9/Q9vz?+*c9D9/Qސ?+*cea9vz?A#eeaސ?A#eEݽj9vz?b%hEݽjސ?b%hO|4q9vz?7דmnO|4qސ?7דmnH )v9vz?~jtsH )vސ?~jtsP,cy9vz?g@n0xɌ^{9vz?jS,|Ɍ^{ސ?jS,|P,cyސ?g@n0x$U}|9vz?r$U}|ސ?r7qxQ~;Onb?q 
Q~;Onb?{G?Q~Q:|A.?Q~lU@?Q~e/`s>?Q~bS"hPS&?Q~8Bi[cߓ?Q~ehO6r~/?Q~\W0/.?Q~
V?(L??Q~?lm
B?nEɧQ~SQ~X){GQ~ŇA.Q~lU@Q~dnm<3>Q~>FڏPS&Q~28*7	g꓿Q~36r~/Q~^@Ԓq 
?Q~;Onb?7qx?Q~;Onb?egcO?4{@:?RAʙuBFH?1vG?7}?<?F}TN?懿x޳	?P?bP?x޳	?Q~㥛 G@V?Q~Ŧ*"f?Q~48EG}?w8p?Q~ĘOő賨t?Q~wT볹 獓¼y?Q~D9,hڥ.~?Q~A]aG?Q~%kA0?Q~G|}8H?Q~l6r~/?Q~^@ԒS?Q~X)>H*?Q~*8H)2#?Q~f׽nEɧ?Q~G@V?Q~5L6x޳	?Q~Mb0*"f?Q~?VKE}?w8p?Q~,jR賨t?Q~K]獓¼y?Q~
J$fG?Q~ x|{wڥ.~?Q~qkA0?Q~!J~Av?Mb`?l񂿔N$jf?Mb`?3ڪ&XL?Mb`?qй6E?+T퉔?Mb`?>uRz)5ٓ?Mb`?3S``?Mb`?+ժZ_6r~/?Mb`?@v͚S?Mb`?
_`?Mb`?mE`?Mb`?i2mBF?Mb`?VES.?Mb`?IF^G?Mb`?l񂿔N$jf?Q~3ڪAv?Q~l&XL?Q~qй6E?+T퉔?Q~>uRz)5ٓ?Q~3S``?Q~+ժZ_6r~/?Q~@v͚S?Q~
_`?Q~mE`?Q~i2mBF?Q~VES.?Q~IF^G?Q~l񂿔N$jf?Mb`?h<y8&XL?Mb`?L*I;?+T퉔?Mb`?,Rry|)5ٓ?Mb`?<\z``?Mb`?Hy6r~/?Mb`?~jtx@v͚S?Mb`?|y`?Mb`?ֈ`\z`?Mb`?CFQ{|BF?Mb`?(;S.?Mb`?vg9N$jf?Q~h<y8&XL?Q~L*I;?+T퉔?Q~,Rry|)5ٓ?Q~<\z``?Q~Hy6r~/?Q~~jtx@v͚S?Q~|y`?Q~ֈ`\z`?Q~CFQ{|BF?Q~(;S.?Q~vg9egcO4{@:?RAʙuBFH1vG?7}?<F}TN?懿G@VQ~Ŧ*"fQ~48EG}?w8pQ~ĘOő賨tQ~wT볹 獓¼yQ~D9,hGQ~%ڥ.~Q~A]akA0Q~G|}8HQ~l>H*Q~*8H)2#Q~f׽G@VQ~5L6*"fQ~?VKE}?w8pQ~,jR賨tQ~K]獓¼yQ~
J$fڥ.~Q~qGQ~ x|{wkA0Q~!J~N$jfMb`?3ڪAvMb`?l&XLMb`?qй6E?+T퉔Mb`?>uRz)5ٓMb`?3S``Mb`?+ժZ_6r~/Mb`?@v͚SMb`?
_`Mb`?mE`Mb`?i2mBFMb`?VES.Mb`?IF^GMb`?l񂿾AvQ~l񂿔N$jfQ~3ڪ&XLQ~qй6E?+T퉔Q~>uRz)5ٓQ~3S``Q~+ժZ_6r~/Q~@v͚SQ~
_`Q~mE`Q~i2mBFQ~VES.񍿸Q~IF^GQ~l񂿔N$jfMb`?h<y8&XLMb`?L*I;?+T퉔Mb`?,Rry|)5ٓMb`?<\z``Mb`?Hy6r~/Mb`?~jtx@v͚SMb`?|y`Mb`?ֈ`\z`Mb`?CFQ{|BFMb`?(;S.Mb`?vg9N$jfQ~h<y8&XLQ~L*I;?+T퉔Q~,Rry|)5ٓQ~<\z``Q~Hy6r~/Q~~jtx@v͚SQ~|y`Q~ֈ`\z`Q~CFQ{|BFQ~(;S.񍿸Q~vg96r~/Q~\W0(L?Q~?lm
B?/.Q~
V?{G?Q~ŇU@?Q~dnm<3>?Q~>FڏPS&?Q~28*7	g?Q~3{GQ~Q:|U@Q~e/`s>Q~bS"hPS&Q~8Bi[cߓQ~ehO9D9/Q?R)\(O?CN9?)\(4_H?l +G?)\(q?tI<?nU1FN?)\(x޳	?MbP?)\(O?CN9)\(4_H?l +G)\(q?tI<?nU1FN)\(x޳	?MbP)\(6r~/?Mb`?^@ԒS?Mb`?X)>H*?Mb`?*8H)2#?Mb`?f׽nEɧ?Mb`?A.?Mb`?l{G?Mb`?ŇU@?Mb`?dnm<3>?Mb`?>FڏPS&?Mb`?28*7	g?Mb`?3{G?Mb`?Q:|U@?Mb`?e/`s>?Mb`?bS"hPS&?Mb`?8Bi[cߓ?Mb`?ehO6r~/?Mb`?\W0(L??Mb`??lm
B?q 
?Mb`?;Onb?7qx?Mb`?;Onb?/.?Mb`?
V?OCN9?)\(9D9/QR)\(4_Hl +G?)\(q?tI<nU1FN?)\(OCN9)\(4_Hl +G)\(q?tI<nU1FN)\(SMb`?X)6r~/Mb`?^@Ԓ>H*Mb`?*8H)2#Mb`?f׽nEɧMb`?{GMb`?ŇA.Mb`?lU@Mb`?dnm<3>Mb`?>FڏPS&Mb`?28*7	g꓿Mb`?3{GMb`?Q:|U@Mb`?e/`s>Mb`?bS"hPS&Mb`?8Bi[cߓMb`?ehO6r~/Mb`?\W0(L?Mb`??lm
B?q 
Mb`?;Onb?/.Mb`?
V?7qxMb`?;Onb?8sYi?)\()\((ȶp?)\(עh[͊H5Ēq?)\(~󉿣(ȶp?)\(џG+v8sYi?)\(~jtsH5Ēq?)\(5عw(ȶp)\(עh[͊8sYi)\()\(H5Ēq)\(~8sYi)\(~jts(ȶp)\(џG+vH5Ēq)\(5عw9D9/Q?'1q?RQx޳	?;Onr?RQx޳	?Q~?RQ4`[X?Q~?RQp@a?E\cDp?RQKxhg?Q~?RQsZ\j?Dw j?RQYoPq?Q~?RQcr?gNVɤȼRQIBr?kܴ|R?RQmHA8p?m$<b?RQVEv?Q~?RQ9vz?
{<RQ9vz?Sk?RQ9vz?~jts?RQ9vz?J+y?RQx޳	?;OnrRQ9D9/Q?'1qRQp@a?E\cDpRQsZ\j?Dw jRQIBr?kܴ|RRQmHA8p?m$<bRQ9vz?Mb`RQ9vz?SkRQ9vz?~jtsRQ9vz?J+yRQx޳	?Q둿㥛 G@V?Q둿Ŧ*"f?Q둿48EG}?w8p?Q둿ĘOő賨t?Q둿wT볹 獓¼y?Q둿D9,hڥ.~?Q둿A]aG?Q둿%kA0?Q둿G|}8H?Q둿l9D9/Q?)\(2d9	?)\(gj+y/]?)\(<f2}Bb?)\(3YI݄+xd?)\(ldNRCs?)\( 4t?)\(ZI행u?)\(LLb\>v?)\(l񂿆x޳	?)\(%uYh)QQ?)\(ˤ<卿"R`?)\(S.Q_vdX?
ףp=
?}Ӓx޳	?
ףp=
?l񒿐_!Rg?
ףp=
?)np?
ףp=
?F$
-#Hu?
ףp=
?dF
F%uz?
ףp=
?8hr{?
ףp=
?D

(yY ?
ףp=
?N⍿rh?
ףp=
?<ۤZ?
ףp=
?legcO?4{@:RAʙuBFH?1vG7}?<?F}TN懿x޳	?P?bPOX?Q~?;Onb?x޳	?Q~?;Onb?Kxhg?Q~?;Onb?YoPq?Q~?;Onb?VEv?Q~?;Onb?9vz?Sk?;Onb?9vz?~jts?;Onb?9vz?J+y?;Onb?G@V?Q둿5L6x޳	?Q둿Mb0*"f?Q둿?VKE}?w8p?Q둿,jR賨t?Q둿K]獓¼y?Q둿
J$fG?Q둿 x|{wڥ.~?Q둿qkA0?Q둿!J~9	?)\(_Q{9D9/Q?)\(ò>߹|y/]?)\(\~Bb?)\(4t?)\(jS,|dNRCs?)\(B]gFz행u?)\(j<Yh)QQ?)\(ox޳	?)\(ŏ1w-!o"R`?)\(ò_$qx޳	?
ףp=
?        _vdX?
ףp=
?Ap-_!Rg?
ףp=
?	mze<np?
ףp=
?i,lVN#Hu?
ףp=
?}ϕZ
F%uz?
ףp=
?. LdY ?
ףp=
?{ pr{?
ףp=
?2(Wvrh?
ףp=
?bc~9D9/Q'1q?RQ4`[XQ~?RQp@aE\cDp?RQKxhgQ~?RQsZ\jDw j?RQYoPqQ~?RQIBrkܴ|R?RQcrgNVɤȼRQmHA8pm$<b?RQVEvQ~?RQ9vz
{<RQ9vzSk?RQ9vz~jts?RQ9vzJ+y?RQ9D9/Q'1qRQp@aE\cDpRQsZ\jDw jRQIBrkܴ|RRQmHA8pm$<bRQ9vzMb`RQ9vzSkRQ9vz~jtsRQ9vzJ+yRQG@VQ둿Ŧ*"fQ둿48EG}?w8pQ둿ĘOő賨tQ둿wT볹 獓¼yQ둿D9,hGQ둿%ڥ.~Q둿A]akA0Q둿G|}8HQ둿l9D9/Q)\(2dy/])\(<f2}Bb)\(3YI݄+xd)\(l4t)\(ZIdNRCs)\( 행u)\(LLb\>v)\(lYh)QQ)\(ˤ<卿"R`)\(S.Q_vdX
ףp=
?}Ӓ_!Rg
ףp=
?)np
ףp=
?F$
-#Hu
ףp=
?dF
F%uz
ףp=
?8hY 
ףp=
?N⍿r{
ףp=
?D

(yrh
ףp=
?<ۤZ
ףp=
?legcO4{@:RAʙuBFH1vG7}?<F}TN懿OXQ~?;Onb?KxhgQ~?;Onb?YoPqQ~?;Onb?VEvQ~?;Onb?9vzSk?;Onb?9vz~jts?;Onb?9vzJ+y?;Onb?G@VQ둿5L6*"fQ둿?VKE}?w8pQ둿,jR賨tQ둿K]獓¼yQ둿
J$fڥ.~Q둿qGQ둿 x|{wkA0Q둿!J~9D9/Q)\(ò>߹|y/])\(\~Bb)\(dNRCs)\(B]gFz4t)\(jS,|행u)\(j<Yh)QQ)\(o"R`)\(ò_$q_vdX
ףp=
?Ap-_!Rg
ףp=
?	mze<np
ףp=
?i,lVN#Hu
ףp=
?}ϕZ
F%uz
ףp=
?. Ldr{
ףp=
?2(WvY 
ףp=
?{ prh
ףp=
?bc~9vz?Q~?yf}4?9vzQ~?<rC9vzQ~? &B9vz?Q~?<rC9vz?Q~? &B9vzQ~?yf}4?Bb?9vz?<݄y/]?9vz?}+xd?9vz?lBb9vz?A5qy/]9vz?+~+xd9vz?l9D9/Q?9vz?ZIx޳	?9vz?x޳	?9vz?k{9D9/Q?9vz?jS,|y/]?9vz?+~9D9/Q9vz?ZIy/]9vz?}9D9/Q9vz?jS,|Bb?9vz?A5qBb9vz?<݄}֤b?k/.o?)\(^H0~j?Tj
j?)\(^H0~j?Tj
j)\(}֤b?k/.o)\(^H0~jTj
j?)\(}֤bk/.o?)\(}֤bk/.o)\(^H0~jTj
j)\(Ц4?Mb`?Nj憿D?Mb`?lpiF?Mb`?6K -9vz?Mb`?fB,c9vz?Mb`?6"ѕ~Y?Mb`?Ц4?Mb`?;}piF?Mb`?7ޛl9vz?Mb`?c<?~Y?Mb`?uDMb`?lЦ4Mb`?Nj憿piFMb`?6K -9vzMb`?fB,c9vzMb`?6"ѕ~YMb`?Ц4Mb`?;}piFMb`?7ޛl9vzMb`?c<?~YMb`?u$=h,p?6Meb?)\($=h,p?6Meb)\($=h,p6Meb?)\($=h,p6Meb)\(9vz?Sk?p{}鐿9vz?~jts?~[ݐ9vz?J+y?>ѐYh)QQ?Q둿ˤ<卿x޳	?Q둿%u"R`?Q둿S.Q8sYi?Q둿)\((ȶp?Q둿עh[͊H5Ēq?Q둿~4t?Q둿ZIdNRCs?Q둿 행u?Q둿LLb\>v?Q둿l9vz?Sk?CmFA`9vz?~jts?ҍ`9vz?J+y?ħJ`x޳	?Q둿ŏ1w-!oYh)QQ?Q둿o"R`?Q둿ò_$q8sYi?Q둿~jts(ȶp?Q둿џG+vH5Ēq?Q둿5عwdNRCs?Q둿B]gFz4t?Q둿jS,|행u?Q둿j<9vzSk?p{}鐿9vz~jts?~[ݐ9vzJ+y?>ѐYh)QQQ둿ˤ<卿"R`Q둿S.Q8sYiQ둿)\((ȶpQ둿עh[͊H5ĒqQ둿~dNRCsQ둿 4tQ둿ZI행uQ둿LLb\>vQ둿l9vzSk?CmFA`9vz~jts?ҍ`9vzJ+y?ħJ`Yh)QQQ둿o"R`Q둿ò_$q8sYiQ둿~jts(ȶpQ둿џG+vH5ĒqQ둿5عw4tQ둿jS,|dNRCsQ둿B]gFz행uQ둿j<(m~r?ބYR?)\(cr?R)\(x޳	?D]|nr?)\(0+!XS?Ddq?)\((m~r?ބYR)\(0+!XS?Ddq)\(x޳	?D]|nr)\((m~rބYR?)\(crR)\(0+!XSDdq?)\((m~rބYR)\(0+!XSDdq)\(x޳	?Q~?C	QOX?Q~?cF4Kxhg?Q~?1XBߒYoPq?Q~?0n.WVEv?Q~?OX?Q~?{Fy0?x޳	?Q~?7?Kxhg?Q~?CUhYoPq?Q~?whOCVEv?Q~?vnڌUOXQ~?cF4KxhgQ~?1XBߒYoPqQ~?0n.WVEvQ~?OXQ~?{Fy0?KxhgQ~?CUhYoPqQ~?whOCVEvQ~?vnڌU)

// edges:

788
(J   K   L   J   M   L   N   M      N   O   P   P   Q   Q   R   R   S   S   T   U   V   T   U   V   W   W   X      Y   [   \   \   ]   ]   ^   ^   _   _   `   a   b   c   a   d   c   e   d   f   e   g   h   h   f   i   g   X   i   j      k   j   K   m   m   n   n   o   o   p   p      q   O   r   q   s   r   t   s   u   t   v   w   w   u   x   v   y   x   z   /   |   [   }   |   ~   }      ~         b                                                   y   8                                                                                                                                                                          	  	  
  
                                                                                     !     "  !  #  "  $  #  %  $  &  %  '  &  (  '  )  (    )    *  *  +  +  ,  ,  -  -  .  .  /  /  0  0  1  1  2  2  3  3  4  4          `            5     6  5  7  6     7           A  A  B  B     K  L  M  K  N  M  O  N  P  O  Q  P  R  Q  S  R  T  S  U  T  V  U  W  V  X  Y  Y  Z  Z  [  [  \  \  ]  ]  ^  ^  _  _  `  `  a  a  b  b  c  c  d  L  e  e  f  f  g  g  h  h  i  i  j  j  k  k  l  l  m  m  n  n  o  o  W  p  X  q  p  r  q  s  r  t  s  u  t  v  u  w  v  x  w  y  x  z  y  d  z  {  |        }              ~  ~                                            {  |  }                                        
                                                                                                                                                                                                                                                                                      
       
                                                                                                                                                                                                 	  	  
  
                                                                                                 !  "  "    #  !    #  $  %  &  $    &  '  (  (  )  )  *  *  +  +  ,  -  .  ,  -  .  /  /      0  1    0  2  3  1  2  4  5  3  6  7  8  6  4  8  9  5  :        ;  ;  <  <  =  =        9  >    ?  >  @  ?  7  A  A  B  B  @  C  :  D  C  E  D  F  E     F  G    H  G  I  H  J  I  K  J  L  M  M  K  N  L  O  N    P  P  Q  Q  R  R  S  T  U  U    V  T  W  V  X    Y  X    Y    Z  Z  [  [  \  \  ]  ]  ^  _  `  ^  _  `  a  a  b  c     d  c  e  d    e    f  f  g  g  h  h  i  j     k  j  l  k  i        l    m  m  n  n  o  o  p  p  q  r  s  q  r  s  t  t  O  u    v  u  w  v  S  w  x  y    x  y  z  z  W  %  {  {  |  |    }  '  ~  }    ~                      b                                                                                                                     Y   Z   Z      {   z      {                                                                                                                                                                                                                                                                                                                               8     9  8  :  9  ;  :  <  ;  =  >  >  <  ?  =  @  ?     C  C  D  D  E  E  F  F  G  H  I  G  H  I  J  J  @                                    
                                                                           	       	                                                                                                                                                                                                  	                                                                                                                                                                                                                                                                         !       "   !   #   "      #      $   $   %   %   &   &   '   '   (   (   )   *      +   ,   )   +   ,   -   .   *   -   .   /   0   1   2   3   4   5   3   4   6   7   1   6   7   0   8   9   :   :   ;   ;   <   <   =   =   >   >   5   ?   9   @   ?   A   @   B   A   C   B   D   C   2   E   F   G   G   D   H   F   E   I   I   H   l   k      l                                                                                                                                                                                                                           )
// * * * * * * * * * * * * * * * * * * * * * * * * * * * * * * * * * * * * * //


// ************************************************************************* //
