/*--------------------------------*- C++ -*----------------------------------*\
| =========                 |                                                 |
| \\      /  F ield         | OpenFOAM: The Open Source CFD Toolbox           |
|  \\    /   O peration     | Version:  1.6                                   |
|   \\  /    A nd           | Web:      www.OpenFOAM.org                      |
|    \\/     M anipulation  |                                                 |
\*---------------------------------------------------------------------------*/
FoamFile
{
    version     2.0;
    format      ascii;
    class       volScalarField;
    location    "0";
    object      omega;
}
// * * * * * * * * * * * * * * * * * * * * * * * * * * * * * * * * * * * * * //

dimensions      [0 0 -1 0 0 0 0];

internalField   uniform 1111.11;

boundaryField
{
    lowerWall
    {
        type            omegaWallFunction;
        value           uniform 1111.11;
    }
    upperWall
    {
        type            omegaWallFunction;
        value           uniform 1111.11;
    }
    frontBack
    {
        type            cyclic;
        value           uniform 1111.11;
    }
    defaultFaces
    {
        type            empty;
    }
}


// ************************************************************************* //
