/*--------------------------------*- C++ -*----------------------------------*\
| =========                 |                                                 |
| \\      /  F ield         | OpenFOAM: The Open Source CFD Toolbox           |
|  \\    /   O peration     | Version:  dev                                   |
|   \\  /    A nd           | Web:      www.OpenFOAM.com                      |
|    \\/     M anipulation  |                                                 |
\*---------------------------------------------------------------------------*/
FoamFile
{
    version     2.0;
    format      ascii;
    class       volScalarField;
    location    "0";
    object      p_rgh;
}
// * * * * * * * * * * * * * * * * * * * * * * * * * * * * * * * * * * * * * //

dimensions      [1 -1 -2 0 0 0 0];

internalField   uniform 100000;

boundaryField
{
    sides
    {
        type            totalPressure;
        p0              $internalField;
        U               U;
        phi             phi;
        rho             rho;
        psi             none;
        gamma           0;
        value           $internalField;
    }
    region0_to_wallFilmRegion_wallFilmFaces
    {
        type            fixedFluxPressure;
    }
}

// ************************************************************************* //
