/*---------------------------------------------------------------------------*\
| =========                 |                                                 |
| \\      /  F ield         | OpenFOAM: The Open Source CFD Toolbox           |
|  \\    /   O peration     | Version:  1.4                                   |
|   \\  /    A nd           | Web:      http://www.openfoam.org               |
|    \\/     M anipulation  |                                                 |
\*---------------------------------------------------------------------------*/

FoamFile
{
    version         2.0;
    format          ascii;

    root            "";
    case            "";
    instance        "";
    local           "";

    class           volScalarField;
    object          p;
}

// * * * * * * * * * * * * * * * * * * * * * * * * * * * * * * * * * * * * * //


dimensions      [1 -1 -2 0 0];

internalField   uniform 5e5;

boundaryField
{
    inlet
    {
        type            totalPressure;
        U               U;
        phi             phiv;
        rho             rho;
        psi             none;
        gamma           1;
        p0              uniform 100e5;
        //p0              uniform 15e5;
    }

    outlet
    {
        type            fixedValue;
        value           uniform 5e5;
    }

    wall      
    {
        type            zeroGradient;
    }

    back
    {
        type            wedge;
    }

    front
    {
        type            wedge;
    }
}


// ************************************************************************* //
