/*--------------------------------*- C++ -*----------------------------------*\
| =========                 |                                                 |
| \\      /  F ield         | OpenFOAM: The Open Source CFD Toolbox           |
|  \\    /   O peration     | Version:  v2112                                 |
|   \\  /    A nd           | Website:  www.openfoam.com                      |
|    \\/     M anipulation  |                                                 |
\*---------------------------------------------------------------------------*/
FoamFile
{
    version     2.0;
    format      ascii;
    class       dictionary;
    object      blockMeshDict;
}
// * * * * * * * * * * * * * * * * * * * * * * * * * * * * * * * * * * * * * //

scale    1;

vertices
(
  (-.2  -.3   -.2)
  (2.2  -.3  -.2)
  (2.2  1.3  -.2)
  (-.2  1.3  -.2)

  (-.2  -.3  2.2)
  (2.2  -.3  2.2)
  (2.2  1.3  2.2)
  (-.2  1.3  2.2)
);

blocks
(
    hex (0 1 2 3 4 5 6 7) (15 10 15) simpleGrading (1 1 1)
);

edges
(
);

patches
(
);


// ************************************************************************* //
