/*--------------------------------*- C++ -*----------------------------------*\
| =========                 |                                                 |
| \\      /  F ield         | OpenFOAM: The Open Source CFD Toolbox           |
|  \\    /   O peration     | Version:  v1912                                 |
|   \\  /    A nd           | Website:  www.openfoam.com                      |
|    \\/     M anipulation  |                                                 |
\*---------------------------------------------------------------------------*/
FoamFile
{
    version     2.0;
    format      ascii;
    class       volScalarField;
    object      T;
}
// * * * * * * * * * * * * * * * * * * * * * * * * * * * * * * * * * * * * * //

dimensions          [0 0 0 1 0 0 0];

internalField       uniform 371;

boundaryField
{
    left
    {
        type            externalWallHeatFluxTemperature;
        mode            coefficient;
        Ta              constant 300.0;
        h
        {
            type            coded;
            codeInclude
            #{
                #include "volFields.H"
            #};
            code
            #{
                const objectRegistry& Db =
                    patch_.boundaryMesh().mesh().thisDb();

                const volScalarField& T =
                    Db.lookupObject<volScalarField>("T");

                tmp<scalarField> thtc(new scalarField(patch_.size(), 300.0));
                scalarField& htc =  thtc.ref();

                const scalarField Tp(T.boundaryField()[patch_.index()]);

                forAll (htc, faceI)
                {
                    if (Tp[faceI] >= 1000.0)
                    {
                        htc[faceI] = 800;
                    }
                    else if (1000.0 >= Tp[faceI] >= 600.0)
                    {
                         htc[faceI] = 0.2*Tp[faceI]+200;
                    }
                }

                return thtc;
            #};
        }
        kappaMethod     fluidThermo;
        value           $internalField;
    }
    right
    {
        type            zeroGradient;
        value           $internalField;
    }
    bottom
    {
        type            externalWallHeatFluxTemperature;
        mode            flux;
        q               uniform  18.5e3;
        kappaMethod     fluidThermo;
        value           $internalField;
    }
    top
    {
        type            inletOutlet;
        value           uniform 371;
        inletValue      uniform 371;
    }
    frontAndBack
    {
        type            zeroGradient;
        value           $internalField;
    }
}

// * * * * * * * * * * * * * * * * * * * * * * * * * * * * * * * * * * * * * //
