/*--------------------------------*- C++ -*----------------------------------*\
| =========                 |                                                 |
| \\      /  F ield         | OpenFOAM: The Open Source CFD Toolbox           |
|  \\    /   O peration     | Version:  v2112                                 |
|   \\  /    A nd           | Website:  www.openfoam.com                      |
|    \\/     M anipulation  |                                                 |
\*---------------------------------------------------------------------------*/
FoamFile
{
    version     2.0;
    format      ascii;
    class       dictionary;
    object      fvSchemes;
}
// * * * * * * * * * * * * * * * * * * * * * * * * * * * * * * * * * * * * * //

ddtSchemes
{
    default         Euler;
}

gradSchemes
{
    default         Gauss linear;
}

divSchemes
{
    default         none;

    "div\(phi,alpha.*\)"            Gauss vanLeer;
    "div\(phir,alpha.*\)"           Gauss vanLeer;

    "div\(alphaRhoPhi.*,U.*\)"      Gauss upwind;
    "div\(phi.*,U.*\)"              Gauss upwind;

    "div\(alphaRhoPhi.*,Yi\)"       Gauss upwind;
    "div\(alphaRhoPhi.*,(h|e|f).*\)"  Gauss upwind;
    "div\(alphaRhoPhi.*,K.*\)"      Gauss upwind;
    "div\(alphaPhi.*,p\)"           Gauss upwind;

    "div\(alphaRhoPhi.*,(k|epsilon).*\)"  Gauss upwind;
    "div\(phim,(k|epsilon)m\)"      Gauss upwind;

    "div\(\(\(\(alpha.*\*thermo:rho.*\)\*nuEff.*\)\*dev2\(T\(grad\(U.*\)\)\)\)\)" Gauss linear;
}

laplacianSchemes
{
    default        Gauss linear corrected;
}

interpolationSchemes
{
    default         linear;
}

snGradSchemes
{
    default         corrected;
}

wallDist
{
    method          meshWave;
    nRequired       yes;
}


// ************************************************************************* //
