/*---------------------------------------------------------------------------*\
| =========                 |                                                 |
| \\      /  F ield         | OpenFOAM: The Open Source CFD Toolbox           |
|  \\    /   O peration     | Version:  1.4                                   |
|   \\  /    A nd           | Web:      http://www.openfoam.org               |
|    \\/     M anipulation  |                                                 |
\*---------------------------------------------------------------------------*/

FoamFile
{
    version             2.0;
    format              ascii;
    root                "";
    case                "";
    instance            "";
    local               "";
    class               volScalarField;
    object              O2;
}

// ************************************************************************* //

dimensions          [ 0 0 0 0 0 0 0 ];

internalField       uniform 0.233;

boundaryField
{
    walls
    {
        type                zeroGradient;
    }

    front
    {
        type                wedge;
    }

    back
    {
        type                wedge;
    }

}

// ************************************************************************* //
