/*--------------------------------*- C++ -*----------------------------------*\
| =========                 |                                                 |
| \\      /  F ield         | OpenFOAM: The Open Source CFD Toolbox           |
|  \\    /   O peration     | Version:  v2112                                 |
|   \\  /    A nd           | Website:  www.openfoam.com                      |
|    \\/     M anipulation  |                                                 |
\*---------------------------------------------------------------------------*/
FoamFile
{
    version     2.0;
    format      ascii;
    class       dictionary;
    object      PDRMeshDict;
}
// * * * * * * * * * * * * * * * * * * * * * * * * * * * * * * * * * * * * * //

//- Per faceSet the patch the faces should go into blocked baffles
blockedFaces ((blockedFacesSet blockedFaces));

//- Per faceSet the duplicate baffles to generate (one 'normal', wall baffle,
//  one cyclic baffle). For use with active baffle boundary conditions.
coupledFaces
{
    coupledFacesSet
    {
        wallPatchName               baffleWall;
        cyclicMasterPatchName       baffleCyclic_half0;
    }
}

//- Name of cellSet that holds the cells to fully remove
blockedCells blockedCellsSet;

//- All exposed faces that are not specified in blockedFaces go into
//  this patch
defaultPatch outer;

// ************************************************************************* //
