/*---------------------------------------------------------------------------*\
| =========                 |                                                 |
| \\      /  F ield         | OpenFOAM: The Open Source CFD Toolbox           |
|  \\    /   O peration     | Version:  1.4                                   |
|   \\  /    A nd           | Web:      http://www.openfoam.org               |
|    \\/     M anipulation  |                                                 |
\*---------------------------------------------------------------------------*/

FoamFile
{
    version         2.0;
    format          ascii;

    root            "";
    case            "";
    instance        "";
    local           "";

    note            "turbulenceProperties for Foam";

    class           dictionary;
    object          turbulenceProperties;
}

// * * * * * * * * * * * * * * * * * * * * * * * * * * * * * * * * * * * * * //

// Switch turbulence model on or off

turbulence            off;


// Standard k-epsilon model coefficients
// ~~~~~~~~~~~~~~~~~~~~~~~~~~~~~~~~~~~~~

kEpsilonCoeffs
{
    Cmu                Cmu             [0 0 0 0 0 0 0]     0.09;
    C1                 C1              [0 0 0 0 0 0 0]     1.44;
    C2                 C2              [0 0 0 0 0 0 0]     1.92;
    C3                 C3              [0 0 0 0 0 0 0]    -0.375;

    alphak             alphak          [0 0 0 0 0 0 0]     1.0;
    alphaEps           alphaEps        [0 0 0 0 0 0 0]     0.82142;
}


// Wall function coefficients
// ~~~~~~~~~~~~~~~~~~~~~~~~~~

wallFunctionCoeffs
{
    kappa              kappa           [0 0 0 0 0 0 0]     0.4187;
    E                  E               [0 0 0 0 0 0 0]     9.0;
}

// ************************************************************************* //
