/*--------------------------------*- C++ -*----------------------------------*\
| =========                 |                                                 |
| \\      /  F ield         | OpenFOAM: The Open Source CFD Toolbox           |
|  \\    /   O peration     | Version:  v2112                                 |
|   \\  /    A nd           | Website:  www.openfoam.com                      |
|    \\/     M anipulation  |                                                 |
\*---------------------------------------------------------------------------*/
FoamFile
{
    version     2.0;
    format      ascii;
    class       volScalarField;
    object      k;
}
// * * * * * * * * * * * * * * * * * * * * * * * * * * * * * * * * * * * * * //

dimensions      [0 2 -2 0 0 0 0];

internalField   uniform 37.5;

boundaryField
{
    top
    {
        type            kqRWallFunction;
        value           uniform 37.5;
    }

    bottom
    {
        type            kqRWallFunction;
        value           uniform 37.5;
    }

    walls
    {
        type            kqRWallFunction;
        value           uniform 37.5;
    }

    symmetry
    {
        type            symmetryPlane;
    }

    frontAndBack
    {
        type            empty;
    }
}


// ************************************************************************* //
