/*--------------------------------*- C++ -*----------------------------------*\
| =========                 |                                                 |
| \\      /  F ield         | OpenFOAM: The Open Source CFD Toolbox           |
|  \\    /   O peration     | Version:  v1906                                 |
|   \\  /    A nd           | Web:      www.OpenFOAM.com                      |
|    \\/     M anipulation  |                                                 |
\*---------------------------------------------------------------------------*/

FoamFile
{
    version     2.0;
    format      ascii;
    class       dictionary;
    location    "constant";
    object      radiationProperties;
}
// * * * * * * * * * * * * * * * * * * * * * * * * * * * * * * * * * * * * * //

radiation       off;

radiationModel  none;//opaqueSolid;

absorptionEmissionModel none;

multiBandSolidAbsorptionEmissionCoeffs
{
    absorptivity    (0.3 0.7);
    emissivity      (0.3 0.7);
}

scatterModel    none;

sootModel none;

// ************************************************************************* //
