/*--------------------------------*- C++ -*----------------------------------*\
| =========                 |                                                 |
| \\      /  F ield         | OpenFOAM: The Open Source CFD Toolbox           |
|  \\    /   O peration     | Version:  v1806                                 |
|   \\  /    A nd           | Web:      www.OpenFOAM.com                      |
|    \\/     M anipulation  |                                                 |
\*---------------------------------------------------------------------------*/
FoamFile
{
    version     2.0;
    format      ascii;
    class       dictionary;
    location    "system";
    object      controlDict;
}
// * * * * * * * * * * * * * * * * * * * * * * * * * * * * * * * * * * * * * //

application     multiphaseInterFoam;

startFrom       startTime;

startTime       0;

stopAt          endTime;

endTime         4;

deltaT          1e-3;

writeControl    adjustableRunTime;

writeInterval   0.125;

purgeWrite      0;

writeFormat     ascii;

writePrecision  6;

writeCompression off;

timeFormat      general;

timePrecision   6;

runTimeModifiable yes;

adjustTimeStep  yes;

maxCo           0.5;
maxAlphaCo      0.5;

maxDeltaT       1;

functions
{
    sTransport
    {
        type            energyTransport;
        libs            ("libsolverFunctionObjects.so");

        enabled         true;
        writeControl    outputTime;
        writeInterval   1;

        field           T;

        rho             rho;
        phi             rhoPhi;

        write           true;

        phaseThermos
        {
            alpha.air
            {
                Cp          1e3;
                kappa       0.0243;
            }
            alpha.mercury
            {
                Cp          140;
                kappa       8.2;
            }
            alpha.oil
            {
                Cp          2e3;
                kappa       0.2;
            }
            alpha.water
            {
                Cp          4e3;
                kappa       0.6;
            }
        }

        fvOptions
        {
            viscousDissipation
            {
                type            viscousDissipation;
                enabled         true;

                viscousDissipationCoeffs
                {
                    fields          (T);
                    rho             rho; //rho Field
                }
            }
        }
    }
}
// ************************************************************************* //
