/*--------------------------------*- C++ -*----------------------------------*\
| =========                 |                                                 |
| \\      /  F ield         | OpenFOAM: The Open Source CFD Toolbox           |
|  \\    /   O peration     | Version:  1.4.1                                 |
|   \\  /    A nd           | Web:      http://www.openfoam.org               |
|    \\/     M anipulation  |                                                 |
\*---------------------------------------------------------------------------*/

FoamFile
{
    version 2.0;
    format ascii;

    root "/home/dm2/henry/OpenFOAM/OpenFOAM-1.4.1/tutorials/solidEquilibriumDisplacementFoam";
    case "beamEndLoad";
    instance "constant";
    local "polyMesh";

    class polyBoundaryMesh;
    object boundary;
}

// * * * * * * * * * * * * * * * * * * * * * * * * * * * * * * * * * * * * * //

5
(
topSurface
{
    type patch;
    nFaces 6;
    startFace 16;
}

bottomSurface
{
    type patch;
    nFaces 6;
    startFace 22;
}

fixedEnd
{
    type wall;
    nFaces 2;
    startFace 28;
}

tractionEnd
{
    type patch;
    nFaces 2;
    startFace 30;
}

defaultFaces
{
    type empty;
    nFaces 24;
    startFace 32;
}
)

// ************************************************************************* //
