/*--------------------------------*- C++ -*----------------------------------*\
| =========                 |                                                 |
| \\      /  F ield         | OpenFOAM: The Open Source CFD Toolbox           |
|  \\    /   O peration     | Version:  v2306                                 |
|   \\  /    A nd           | Website:  www.openfoam.com                      |
|    \\/     M anipulation  |                                                 |
\*---------------------------------------------------------------------------*/
FoamFile
{
    version     2.0;
    format      ascii;
    class       dictionary;
    object      fvSchemes;
}
// * * * * * * * * * * * * * * * * * * * * * * * * * * * * * * * * * * * * * //

ddtSchemes
{
    default         steadyState;
}

gradSchemes
{
    default          Gauss linear;
}

divSchemes
{
    default            Gauss linear;
    div(phi,U)         bounded Gauss linearUpwind gradUConv;
    div(phi,k)         bounded Gauss linearUpwind gradkConv;
    div(phi,omega)     bounded Gauss linearUpwind gradOmegaConv;

    div(-phi,Ua)               Gauss linearUpwind gradUaConv;
    div(-phi,ka)               Gauss linearUpwind gradkaConv;
    div(-phi,wa)               Gauss linearUpwind gradwaConv;
}

laplacianSchemes
{
    default         Gauss linear corrected;
}

interpolationSchemes
{
    default         linear;
}

snGradSchemes
{
    default         corrected;
}

wallDist
{
    method meshWave;
}

// ************************************************************************* //
