/*--------------------------------*- C++ -*----------------------------------*\
| =========                 |                                                 |
| \\      /  F ield         | OpenFOAM: The Open Source CFD Toolbox           |
|  \\    /   O peration     | Version:  v1806                                 |
|   \\  /    A nd           | Web:      www.OpenFOAM.com                      |
|    \\/     M anipulation  |                                                 |
\*---------------------------------------------------------------------------*/
FoamFile
{
    version     2.0;
    format      ascii;
    class       dictionary;
    object      decomposeParDict;
}
// * * * * * * * * * * * * * * * * * * * * * * * * * * * * * * * * * * * * * //

numberOfSubdomains  4;

//- Keep owner and neighbour on same processor for faces in zones:
// preserveFaceZones (heater solid1 solid3);

// method          scotch;
method          hierarchical;
// method          simple;
// method          manual;

coeffs
{
    n           (2 2 1);
    //delta       0.001; // default=0.001
    //order       xyz;   // default=xzy
    dataFile    "decompositionData";
}

scotchCoeffs
{
    //processorWeights
    //(
    //    1
    //    1
    //    1
    //    1
    //);
    //writeGraph  true;
    //strategy "b";
}

// ************************************************************************* //
