/*--------------------------------*- C++ -*----------------------------------*\
| =========                 |                                                 |
| \\      /  F ield         | OpenFOAM: The Open Source CFD Toolbox           |
|  \\    /   O peration     | Version:  v2112                                 |
|   \\  /    A nd           | Website:  www.openfoam.com                      |
|    \\/     M anipulation  |                                                 |
\*---------------------------------------------------------------------------*/
FoamFile
{
    version     2.0;
    format      ascii;
    class       volScalarField;
    object      deltaf;
}
// * * * * * * * * * * * * * * * * * * * * * * * * * * * * * * * * * * * * * //

dimensions      [0 1 0 0 0 0 0];

internalField   uniform 1e-6;

boundaryField
{
    coupledWall_top
    {
        type            zeroGradient;
    }

    region0_to_filmRegion_coupledWall
    {
        type            zeroGradient;
    }

    "side.*"
    {
        type            zeroGradient;
    }

    inlet
    {
        type            fixedValue;
        value           uniform  6e-4;
    }

    outlet
    {
        type            zeroGradient;
    }
}


// ************************************************************************* //
