/*--------------------------------*- C++ -*----------------------------------*\
| =========                 |                                                 |
| \\      /  F ield         | OpenFOAM: The Open Source CFD Toolbox           |
|  \\    /   O peration     | Version:  v1806                                 |
|   \\  /    A nd           | Web:      www.OpenFOAM.com                      |
|    \\/     M anipulation  |                                                 |
\*---------------------------------------------------------------------------*/
FoamFile
{
    version     2.0;
    format      ascii;
    class       dictionary;
    object      faMeshDefinition;
}
// * * * * * * * * * * * * * * * * * * * * * * * * * * * * * * * * * * * * * //

polyMeshPatches  1( top );

boundary
{
    inlet
    {
        type patch;
        ownerPolyPatch top;
        neighbourPolyPatch inlet;
    }
    outlet
    {
        type patch;
        ownerPolyPatch top;
        neighbourPolyPatch outlet;
    }
    bound
    {
        type symmetry;
        ownerPolyPatch top;
        neighbourPolyPatch bound;
    }
}


// ************************************************************************** //
