/*--------------------------------*- C++ -*----------------------------------*\
| =========                 |                                                 |
| \\      /  F ield         | OpenFOAM: The Open Source CFD Toolbox           |
|  \\    /   O peration     | Version:  v1806                                 |
|   \\  /    A nd           | Web:      www.OpenFOAM.com                      |
|    \\/     M anipulation  |                                                 |
\*---------------------------------------------------------------------------*/
FoamFile
{
    version     2.0;
    format      ascii;
    class       dictionary;
    location    "system";
    object      fvSolution;
}

// * * * * * * * * * * * * * * * * * * * * * * * * * * * * * * * * * * * * * //

solvers
{
    rho
    {
        solver          PCG;
        preconditioner  DIC;
        tolerance       0;
        relTol          0;
    };

    p_rgh
    {
        solver              GAMG;
        tolerance           1e-5;
        relTol              0.01;
        smoother            GaussSeidel;
        cacheAgglomeration  true;
        //nCellsInCoarsestLevel   10;
        nCellsInCoarsestLevel   1;
        agglomerator    faceAreaPair;
        mergeLevels     1;
    };

    p_rghFinal
    {
        solver              GAMG;
        tolerance           1e-6;
        relTol              0;
        smoother            GaussSeidel;
        cacheAgglomeration  true;
        //nCellsInCoarsestLevel 10;
        nCellsInCoarsestLevel 1;
        agglomerator     faceAreaPair;
        mergeLevels      1;
    };

    Yi
    {
        solver          PBiCGStab;
        preconditioner  DILU;
        tolerance       1e-8;
        relTol          0;
    };

    U
    {
        solver          PBiCGStab;
        preconditioner  DILU;
        tolerance       1e-6;
        relTol          0.0;
    };

    UFinal
    {
        solver          PBiCGStab;
        preconditioner  DILU;
        tolerance       1e-7;
        relTol          0;
    };

    k
    {
        solver          PBiCGStab;
        preconditioner  DILU;
        tolerance       1e-8;
        relTol          0;
    };

    //hs
    h
    {
        solver          PBiCGStab;
        preconditioner  DILU;
        tolerance       1e-8;
        relTol          0;
    };

    Ii
    {
        solver          PBiCGStab;
        preconditioner  DILU;
        tolerance       1e-8;
        relTol          0;
    }

    G
    {
        solver          PCG;
        preconditioner  DIC;
        tolerance       1e-06;
        relTol          0;
    }

}

PIMPLE
{
    momentumPredictor yes;
    nOuterCorrectors  1;
    nCorrectors       2;
    nNonOrthogonalCorrectors 0;
}

relaxationFactors
{
    equations
    {
        "(U|k).*"                   1;
        "(C3H8|O2|H2O|CO2|h).*"     1;
    }
}


// ************************************************************************* //
