/*--------------------------------*- C++ -*----------------------------------*\
| =========                 |                                                 |
| \\      /  F ield         | OpenFOAM: The Open Source CFD Toolbox           |
|  \\    /   O peration     | Version:  v2106                                 |
|   \\  /    A nd           | Website:  www.openfoam.com                      |
|    \\/     M anipulation  |                                                 |
\*---------------------------------------------------------------------------*/
FoamFile
{
    version     2.0;
    format      ascii;
    class       dictionary;
    object      topoSetDict;
}
// * * * * * * * * * * * * * * * * * * * * * * * * * * * * * * * * * * * * * //

actions
(
    {
        name    coupledPatch;
        type    faceSet;
        action  new;
        source  patchToFace;
        patch   coupledPatch;
    }

    {
        name    panel;
        type    faceZoneSet;
        action  new;
        source  setToFaceZone;
        faceSet coupledPatch;
    }
);


// ************************************************************************* //
