/*--------------------------------*- C++ -*----------------------------------*\
| =========                 |                                                 |
| \\      /  F ield         | OpenFOAM: The Open Source CFD Toolbox           |
|  \\    /   O peration     | Version:  v2112                                 |
|   \\  /    A nd           | Website:  www.openfoam.com                      |
|    \\/     M anipulation  |                                                 |
\*---------------------------------------------------------------------------*/
FoamFile
{
    version     2.0;
    format      ascii;
    class       volScalarField;
    object      k;
}
// * * * * * * * * * * * * * * * * * * * * * * * * * * * * * * * * * * * * * //

dimensions      [0 2 -2 0 0 0 0];

internalField   uniform 0.24;

boundaryField
{
    inlet
    {
        type            fixedValue;
        value           uniform 0.24;
    }

    outlet
    {
        type            inletOutlet;
        inletValue      uniform 0.24;
        value           uniform 0.24;
    }

    lowerWall
    {
        type            kqRWallFunction;
        value           uniform 0.24;
    }

    "motorBike_.*"
    {
        type            kqRWallFunction;
        value           uniform 0.24;
    }

    upperWall
    {
        type            symmetryPlane;
    }

    "(front|back)"
    {
        type            symmetryPlane;
    }

    "proc.*"
    {
        type            processor;
    }
}


// ************************************************************************* //
