/*--------------------------------*- C++ -*----------------------------------*\
| =========                 |                                                 |
| \\      /  F ield         | OpenFOAM: The Open Source CFD Toolbox           |
|  \\    /   O peration     | Version:  1.4.1                                 |
|   \\  /    A nd           | Web:      http://www.openfoam.org               |
|    \\/     M anipulation  |                                                 |
\*---------------------------------------------------------------------------*/

FoamFile
{
    version 2.0;
    format ascii;

    root "/home/dm2/henry/OpenFOAM/OpenFOAM-1.4.1/tutorials/sonicTurbFoam";
    case "prism";
    instance "constant";
    local "polyMesh";

    class polyBoundaryMesh;
    object boundary;
}

// * * * * * * * * * * * * * * * * * * * * * * * * * * * * * * * * * * * * * //

6
(
inlet
{
    type patch;
    physicalType supersonicInlet;
    nFaces 48;
    startFace 13081;
}

outlet
{
    type patch;
    physicalType pressureTransmissiveOutlet;
    nFaces 68;
    startFace 13129;
}

bottomWall
{
    type patch;
    physicalType supersonicFreestream;
    nFaces 107;
    startFace 13197;
}

topWall
{
    type patch;
    physicalType supersonicFreestream;
    nFaces 107;
    startFace 13304;
}

prismWall
{
    type wall;
    physicalType adiabaticWallFunctions;
    nFaces 52;
    startFace 13411;
}

defaultFaces
{
    type empty;
    nFaces 13272;
    startFace 13463;
}
)

// ************************************************************************* //
