/*--------------------------------*- C++ -*----------------------------------*\
| =========                 |                                                 |
| \\      /  F ield         | OpenFOAM: The Open Source CFD Toolbox           |
|  \\    /   O peration     | Version:  dev                                   |
|   \\  /    A nd           | Web:      http://www.openfoam.org               |
|    \\/     M anipulation  |                                                 |
\*---------------------------------------------------------------------------*/
FoamFile
{
    version     2.0;
    format      ascii;
    class       polyBoundaryMesh;
    object      boundary;
    location    "constant/polyMesh";
}
// * * * * * * * * * * * * * * * * * * * * * * * * * * * * * * * * * * * * * //

6
(
    inlet
    {
        type            patch;
        nFaces          48;
        startFace       13081;
    }
    outlet
    {
        type            patch;
        nFaces          68;
        startFace       13129;
    }
    bottomWall
    {
        type            patch;
        nFaces          107;
        startFace       13197;
    }
    topWall
    {
        type            patch;
        nFaces          107;
        startFace       13304;
    }
    prismWall
    {
        type            wall;
        nFaces          52;
        startFace       13411;
    }
    defaultFaces
    {
        type            empty;
        nFaces          13272;
        startFace       13463;
    }
)

// ************************************************************************* //
