/*--------------------------------*- C++ -*----------------------------------*\
| =========                 |                                                 |
| \\      /  F ield         | OpenFOAM: The Open Source CFD Toolbox           |
|  \\    /   O peration     | Version:  v1806                                 |
|   \\  /    A nd           | Web:      www.OpenFOAM.com                      |
|    \\/     M anipulation  |                                                 |
\*---------------------------------------------------------------------------*/
FoamFile
{
    version     2.0;
    format      ascii;
    class       dictionary;
    location    "system";
    object      controlDict;
}
// * * * * * * * * * * * * * * * * * * * * * * * * * * * * * * * * * * * * * //

application         surfactantFoam;

startFrom           startTime;

startTime           0;

stopAt              endTime;

endTime             6;

deltaT              0.1;

writeControl        runTime;

writeInterval       0.2;

purgeWrite          0;

writeFormat         ascii;

writeCompression    off;

timeFormat          general;

timePrecision       6;

runTimeModifiable   yes;


// ************************************************************************* //

