/*--------------------------------*- C++ -*----------------------------------*\
| =========                 |                                                 |
| \\      /  F ield         | OpenFOAM: The Open Source CFD Toolbox           |
|  \\    /   O peration     | Version:  v1806                                 |
|   \\  /    A nd           | Web:      www.OpenFOAM.com                      |
|    \\/     M anipulation  |                                                 |
\*---------------------------------------------------------------------------*/
FoamFile
{
    version     2.0;
    format      ascii;
    class       volScalarField;
    location    "0";
    object      epsilon;
}
// * * * * * * * * * * * * * * * * * * * * * * * * * * * * * * * * * * * * * //

dimensions      [0 2 -3 0 0 0 0];

internalField   uniform 200;

boundaryField
{
    front
    {
        type            epsilonWallFunction;
        value           $internalField;
    }

    back
    {
        type            epsilonWallFunction;
        value           $internalField;
    }

    walls
    {
        type            epsilonWallFunction;
        value           $internalField;
    }

    porosityWall
    {
        type            epsilonWallFunction;
        value           $internalField;
    }

    inlet
    {
        type            turbulentMixingLengthDissipationRateInlet;
        mixingLength    0.005;
        value           $internalField;
    }

    outlet
    {
        type            inletOutlet;
        inletValue      $internalField;
        value           $internalField;
    }
}


// ************************************************************************* //
