/*--------------------------------*- C++ -*----------------------------------*\
| =========                 |                                                 |
| \\      /  F ield         | OpenFOAM: The Open Source CFD Toolbox           |
|  \\    /   O peration     | Version:  v2112                                 |
|   \\  /    A nd           | Website:  www.openfoam.com                      |
|    \\/     M anipulation  |                                                 |
\*---------------------------------------------------------------------------*/
FoamFile
{
    version     2.0;
    format      ascii;
    class       dictionary;
    object      thermophysicalProperties;
}
// * * * * * * * * * * * * * * * * * * * * * * * * * * * * * * * * * * * * * //

thermoType
{
    type            heRhoThermo;
    mixture         reactingMixture;
    transport       const;
    thermo          hConst;
    energy          sensibleEnthalpy;
    equationOfState perfectGas;
    specie          specie;
}

chemistryReader foamChemistryReader;

foamChemistryFile "<constant>/foam.inp";

foamChemistryThermoFile "<constant>/foam.dat";

inertSpecie     air;

liquids
{
    H2O;
}

solids
{}


// ************************************************************************* //
