/*--------------------------------*- C++ -*----------------------------------*\
| =========                 |                                                 |
| \\      /  F ield         | OpenFOAM: The Open Source CFD Toolbox           |
|  \\    /   O peration     | Version:  dev.FMGlobal                          |
|   \\  /    A nd           | Web:      www.OpenFOAM.com                      |
|    \\/     M anipulation  |                                                 |
\*---------------------------------------------------------------------------*/
FoamFile
{
    version     2.0;
    format      ascii;
    class       polyBoundaryMesh;
    location    "constant/polyMesh";
    object      boundary;
}
// * * * * * * * * * * * * * * * * * * * * * * * * * * * * * * * * * * * * * //

26
(
    walls
    {
        type            wall;
        nFaces          44800;
        startFace       2226176;
    }
    region0_to_wallFilmRegion_cube01_side1
    {
        type            directMappedWall;
        nFaces          256;
        startFace       2270976;
        sampleMode      nearestPatchFace;
        sampleRegion    wallFilmRegion;
        samplePatch     region0_to_wallFilmRegion_cube01_side1;
        offsetMode      nonuniform;
        offsets         
256
(
(5.551115123e-17 -0 -0)
(-1.110223025e-16 -0 -0)
(-0 -5.551115123e-17 5.551115123e-17)
(-0 5.551115123e-17 -0)
(-1.110223025e-16 -5.551115123e-17 5.551115123e-17)
(1.110223025e-16 -0 -5.551115123e-17)
(-0 -5.551115123e-17 5.551115123e-17)
(1.110223025e-16 -5.551115123e-17 5.551115123e-17)
(-0 5.551115123e-17 -0)
(-0 -5.551115123e-17 5.551115123e-17)
(-5.551115123e-17 -0 -0)
(-5.551115123e-17 -0 -5.551115123e-17)
(-5.551115123e-17 -0 -5.551115123e-17)
(-1.110223025e-16 -0 -5.551115123e-17)
(-1.110223025e-16 -0 -5.551115123e-17)
(-1.110223025e-16 -0 -0)
(-0 -0 -5.551115123e-17)
(-1.110223025e-16 -0 -5.551115123e-17)
(-1.110223025e-16 -0 -0)
(-1.110223025e-16 5.551115123e-17 5.551115123e-17)
(-1.110223025e-16 -0 -0)
(-1.110223025e-16 -5.551115123e-17 -0)
(-0 -0 -0)
(1.110223025e-16 -0 -0)
(-0 5.551115123e-17 5.551115123e-17)
(-0 -0 -0)
(-5.551115123e-17 5.551115123e-17 -0)
(-5.551115123e-17 -0 -5.551115123e-17)
(-5.551115123e-17 -0 -0)
(-0 -0 -5.551115123e-17)
(-5.551115123e-17 -0 -5.551115123e-17)
(-5.551115123e-17 5.551115123e-17 -0)
(-0 -0 -5.551115123e-17)
(-0 -0 -0)
(-0 5.551115123e-17 -0)
(-0 5.551115123e-17 -0)
(1.110223025e-16 5.551115123e-17 -0)
(1.110223025e-16 5.551115123e-17 5.551115123e-17)
(-0 5.551115123e-17 -0)
(-0 5.551115123e-17 -0)
(-0 5.551115123e-17 -0)
(-0 5.551115123e-17 -0)
(-0 -0 5.551115123e-17)
(-5.551115123e-17 -5.551115123e-17 -0)
(-1.110223025e-16 -5.551115123e-17 -0)
(-5.551115123e-17 -5.551115123e-17 -5.551115123e-17)
(-5.551115123e-17 -5.551115123e-17 -0)
(-1.110223025e-16 -0 5.551115123e-17)
(5.551115123e-17 -5.551115123e-17 -0)
(-1.110223025e-16 -5.551115123e-17 -0)
(-0 -0 5.551115123e-17)
(-0 -0 -0)
(-1.110223025e-16 -0 5.551115123e-17)
(-0 -1.110223025e-16 -5.551115123e-17)
(-0 -0 5.551115123e-17)
(1.110223025e-16 -0 5.551115123e-17)
(-0 -0 -0)
(-0 -0 5.551115123e-17)
(-0 -0 -5.551115123e-17)
(-0 -1.387778781e-17 5.551115123e-17)
(5.551115123e-17 -1.387778781e-17 5.551115123e-17)
(-5.551115123e-17 -1.387778781e-17 5.551115123e-17)
(-0 -1.387778781e-17 5.551115123e-17)
(-0 -0 -5.551115123e-17)
(-0 -1.387778781e-17 5.551115123e-17)
(-0 -1.387778781e-17 5.551115123e-17)
(1.110223025e-16 -0 -5.551115123e-17)
(-0 -0 -0)
(-0 -0 -5.551115123e-17)
(-0 1.387778781e-17 5.551115123e-17)
(1.110223025e-16 -0 -5.551115123e-17)
(1.110223025e-16 -0 -5.551115123e-17)
(1.110223025e-16 -0 -0)
(-0 -0 -5.551115123e-17)
(-0 -0 -5.551115123e-17)
(-0 -0 5.551115123e-17)
(5.551115123e-17 -0 5.551115123e-17)
(-0 -0 5.551115123e-17)
(-5.551115123e-17 -0 5.551115123e-17)
(-5.551115123e-17 -0 -5.551115123e-17)
(-0 -0 5.551115123e-17)
(-0 -0 5.551115123e-17)
(-0 -0 -5.551115123e-17)
(-1.110223025e-16 -2.775557562e-17 -1.110223025e-16)
(1.110223025e-16 -0 -5.551115123e-17)
(-1.110223025e-16 -2.775557562e-17 -5.551115123e-17)
(1.110223025e-16 -0 -5.551115123e-17)
(1.110223025e-16 -0 -5.551115123e-17)
(-1.110223025e-16 -2.775557562e-17 -1.110223025e-16)
(-0 -0 -5.551115123e-17)
(-0 2.775557562e-17 -0)
(5.551115123e-17 -0 -0)
(-0 -0 -0)
(5.551115123e-17 -0 -0)
(5.551115123e-17 -0 -0)
(-0 2.775557562e-17 -0)
(-0 -0 -0)
(-5.551115123e-17 -0 -0)
(-0 2.775557562e-17 -0)
(-1.110223025e-16 -5.551115123e-17 -1.110223025e-16)
(-1.110223025e-16 2.775557562e-17 -0)
(1.110223025e-16 -5.551115123e-17 -5.551115123e-17)
(-1.110223025e-16 2.775557562e-17 -0)
(-0 2.775557562e-17 -0)
(-1.110223025e-16 -5.551115123e-17 -1.110223025e-16)
(-0 2.775557562e-17 -0)
(5.551115123e-17 -0 5.551115123e-17)
(-0 -0 -5.551115123e-17)
(1.110223025e-16 2.775557562e-17 5.551115123e-17)
(-1.110223025e-16 -2.775557562e-17 -1.110223025e-16)
(-0 -0 -5.551115123e-17)
(5.551115123e-17 -0 5.551115123e-17)
(5.551115123e-17 -0 -5.551115123e-17)
(-0 2.775557562e-17 5.551115123e-17)
(1.110223025e-16 -0 5.551115123e-17)
(-1.110223025e-16 2.775557562e-17 -0)
(1.110223025e-16 -0 5.551115123e-17)
(1.110223025e-16 2.775557562e-17 -0)
(2.220446049e-16 -0 5.551115123e-17)
(1.110223025e-16 -0 5.551115123e-17)
(-0 2.775557562e-17 -0)
(1.110223025e-16 -0 5.551115123e-17)
(-0 -5.551115123e-17 -0)
(5.551115123e-17 -0 -0)
(-0 -0 -0)
(5.551115123e-17 -0 -0)
(5.551115123e-17 -0 -0)
(-0 -5.551115123e-17 -0)
(-0 -0 -0)
(-5.551115123e-17 -0 -0)
(-0 -5.551115123e-17 -0)
(-1.110223025e-16 -5.551115123e-17 -1.110223025e-16)
(-1.110223025e-16 -5.551115123e-17 -0)
(1.110223025e-16 -2.775557562e-17 -5.551115123e-17)
(-1.110223025e-16 -5.551115123e-17 -0)
(-0 -5.551115123e-17 -0)
(-1.110223025e-16 -5.551115123e-17 -1.110223025e-16)
(-0 -5.551115123e-17 -0)
(5.551115123e-17 5.551115123e-17 5.551115123e-17)
(-0 -0 -5.551115123e-17)
(1.110223025e-16 2.775557562e-17 5.551115123e-17)
(-1.110223025e-16 -5.551115123e-17 -1.110223025e-16)
(-0 -0 -5.551115123e-17)
(5.551115123e-17 5.551115123e-17 5.551115123e-17)
(5.551115123e-17 -0 -5.551115123e-17)
(-0 2.775557562e-17 5.551115123e-17)
(1.110223025e-16 5.551115123e-17 5.551115123e-17)
(-1.110223025e-16 2.775557562e-17 -0)
(1.110223025e-16 5.551115123e-17 5.551115123e-17)
(1.110223025e-16 2.775557562e-17 -0)
(2.220446049e-16 5.551115123e-17 5.551115123e-17)
(1.110223025e-16 5.551115123e-17 5.551115123e-17)
(-0 2.775557562e-17 -0)
(1.110223025e-16 5.551115123e-17 5.551115123e-17)
(-0 -0 -0)
(5.551115123e-17 5.551115123e-17 -0)
(-0 5.551115123e-17 -0)
(-0 5.551115123e-17 -0)
(-0 5.551115123e-17 -0)
(-0 -0 -0)
(-0 5.551115123e-17 -0)
(-0 5.551115123e-17 -0)
(-0 -0 -0)
(-2.220446049e-16 -5.551115123e-17 -5.551115123e-17)
(-1.110223025e-16 -0 -0)
(-0 -2.775557562e-17 -0)
(1.110223025e-16 -0 -0)
(-0 -0 -0)
(-1.110223025e-16 -5.551115123e-17 -5.551115123e-17)
(-0 -0 -0)
(-5.551115123e-17 -0 -0)
(-5.551115123e-17 -0 -5.551115123e-17)
(-5.551115123e-17 -0 -5.551115123e-17)
(-5.551115123e-17 -0 -5.551115123e-17)
(-5.551115123e-17 -0 -5.551115123e-17)
(-1.110223025e-16 -0 -0)
(-0 -0 -5.551115123e-17)
(-1.665334537e-16 -0 -5.551115123e-17)
(-1.110223025e-16 -0 -0)
(-0 -0 -0)
(-1.110223025e-16 -0 -0)
(1.110223025e-16 -2.775557562e-17 -5.551115123e-17)
(-2.220446049e-16 -0 -0)
(1.110223025e-16 -0 -0)
(-0 -0 -0)
(-0 -0 -0)
(5.551115123e-17 8.326672685e-17 5.551115123e-17)
(-0 2.775557562e-17 -5.551115123e-17)
(1.110223025e-16 5.551115123e-17 5.551115123e-17)
(-1.110223025e-16 -0 -1.110223025e-16)
(-0 2.775557562e-17 -5.551115123e-17)
(5.551115123e-17 8.326672685e-17 5.551115123e-17)
(5.551115123e-17 2.775557562e-17 -5.551115123e-17)
(-0 5.551115123e-17 5.551115123e-17)
(1.110223025e-16 8.326672685e-17 5.551115123e-17)
(-1.110223025e-16 -2.775557562e-17 -0)
(1.110223025e-16 8.326672685e-17 5.551115123e-17)
(1.110223025e-16 -2.775557562e-17 -0)
(2.220446049e-16 8.326672685e-17 5.551115123e-17)
(1.110223025e-16 8.326672685e-17 5.551115123e-17)
(-0 -2.775557562e-17 -0)
(1.110223025e-16 8.326672685e-17 5.551115123e-17)
(-0 -2.775557562e-17 -0)
(5.551115123e-17 2.775557562e-17 -0)
(-0 -2.775557562e-17 -0)
(5.551115123e-17 2.775557562e-17 -0)
(5.551115123e-17 2.775557562e-17 -0)
(-0 -2.775557562e-17 -0)
(-0 2.775557562e-17 -0)
(-5.551115123e-17 -2.775557562e-17 -0)
(-0 -2.775557562e-17 -0)
(-1.110223025e-16 -8.326672685e-17 -1.110223025e-16)
(-1.110223025e-16 -2.775557562e-17 -0)
(1.110223025e-16 -8.326672685e-17 -5.551115123e-17)
(-1.110223025e-16 -2.775557562e-17 -0)
(-0 -2.775557562e-17 -0)
(-1.110223025e-16 -8.326672685e-17 -1.110223025e-16)
(-0 -2.775557562e-17 -0)
(5.551115123e-17 5.551115123e-17 5.551115123e-17)
(-0 2.775557562e-17 -5.551115123e-17)
(1.110223025e-16 5.551115123e-17 5.551115123e-17)
(-1.110223025e-16 -5.551115123e-17 -1.110223025e-16)
(-0 2.775557562e-17 -5.551115123e-17)
(5.551115123e-17 5.551115123e-17 5.551115123e-17)
(5.551115123e-17 2.775557562e-17 -5.551115123e-17)
(-0 5.551115123e-17 5.551115123e-17)
(1.110223025e-16 5.551115123e-17 5.551115123e-17)
(-1.110223025e-16 -2.775557562e-17 -0)
(1.110223025e-16 5.551115123e-17 5.551115123e-17)
(1.110223025e-16 -0 -0)
(2.220446049e-16 5.551115123e-17 5.551115123e-17)
(1.110223025e-16 5.551115123e-17 5.551115123e-17)
(-0 -2.775557562e-17 -0)
(1.110223025e-16 5.551115123e-17 5.551115123e-17)
(-0 -0 -0)
(5.551115123e-17 2.775557562e-17 -0)
(-0 -0 -0)
(-0 2.775557562e-17 -0)
(-0 2.775557562e-17 -0)
(-0 -0 -0)
(-0 2.775557562e-17 -0)
(-0 -0 -0)
(-0 -0 -0)
(-2.220446049e-16 -5.551115123e-17 -5.551115123e-17)
(-1.110223025e-16 -0 -0)
(-0 -5.551115123e-17 -0)
(1.110223025e-16 -0 -0)
(-0 -0 -0)
(-1.110223025e-16 -5.551115123e-17 -5.551115123e-17)
(-0 -0 -0)
(-0 -5.551115123e-17 5.551115123e-17)
(-5.551115123e-17 -0 -0)
(-1.110223025e-16 -0 -0)
(-5.551115123e-17 -0 -5.551115123e-17)
(-5.551115123e-17 -0 -0)
(-1.110223025e-16 -5.551115123e-17 5.551115123e-17)
)
;
    }
    region0_to_wallFilmRegion_cube01_side2
    {
        type            directMappedWall;
        nFaces          256;
        startFace       2271232;
        sampleMode      nearestPatchFace;
        sampleRegion    wallFilmRegion;
        samplePatch     region0_to_wallFilmRegion_cube01_side2;
        offsetMode      nonuniform;
        offsets         
256
(
(-0 -5.551115123e-17 -0)
(-0 -0 5.551115123e-17)
(1.110223025e-16 -5.551115123e-17 -0)
(-1.110223025e-16 -1.110223025e-16 2.775557562e-17)
(-1.110223025e-16 -0 -0)
(-0 -5.551115123e-17 -0)
(-0 -0 -0)
(-0 -5.551115123e-17 -0)
(1.110223025e-16 -1.387778781e-17 -0)
(-0 -1.110223025e-16 5.551115123e-17)
(-0 -5.551115123e-17 -2.775557562e-17)
(1.110223025e-16 -0 -1.387778781e-17)
(-1.110223025e-16 -1.387778781e-17 2.775557562e-17)
(1.110223025e-16 -0 5.551115123e-17)
(1.110223025e-16 -0 5.551115123e-17)
(-0 2.775557562e-17 5.551115123e-17)
(-0 -1.387778781e-17 -2.775557562e-17)
(-0 -0 -0)
(-1.110223025e-16 -0 -0)
(1.110223025e-16 -8.326672685e-17 5.551115123e-17)
(-0 -0 -0)
(-0 -5.551115123e-17 2.775557562e-17)
(-0 -5.551115123e-17 -5.551115123e-17)
(-1.110223025e-16 -5.551115123e-17 -0)
(1.110223025e-16 -0 -0)
(-1.110223025e-16 -0 -0)
(-1.110223025e-16 -5.551115123e-17 -0)
(-1.110223025e-16 -0 -5.551115123e-17)
(-1.110223025e-16 -1.387778781e-17 -0)
(1.110223025e-16 -0 -0)
(-1.110223025e-16 -1.110223025e-16 2.775557562e-17)
(-0 -5.551115123e-17 2.775557562e-17)
(-0 -0 -5.551115123e-17)
(-0 -1.387778781e-17 -2.775557562e-17)
(-0 -0 5.551115123e-17)
(-1.110223025e-16 -1.110223025e-16 -0)
(1.110223025e-16 -2.775557562e-17 -0)
(1.110223025e-16 -1.387778781e-17 1.387778781e-17)
(-0 -5.551115123e-17 -0)
(1.110223025e-16 -0 -0)
(-0 -1.387778781e-17 -8.326672685e-17)
(-0 -0 -0)
(1.110223025e-16 -2.775557562e-17 -0)
(-1.110223025e-16 -0 -0)
(-1.110223025e-16 -1.387778781e-17 -0)
(-0 -0 -0)
(-0 -0 2.775557562e-17)
(-1.110223025e-16 -1.387778781e-17 5.551115123e-17)
(-0 -0 -0)
(-0 -0 -2.775557562e-17)
(-1.110223025e-16 -1.387778781e-17 -0)
(1.110223025e-16 -2.775557562e-17 -2.775557562e-17)
(1.110223025e-16 -0 -0)
(-0 -0 -1.387778781e-17)
(1.110223025e-16 -1.387778781e-17 -2.775557562e-17)
(-0 -1.387778781e-17 -0)
(-0 -1.387778781e-17 -8.326672685e-17)
(2.220446049e-16 2.775557562e-17 1.110223025e-16)
(-0 -0 5.551115123e-17)
(1.110223025e-16 1.387778781e-17 -0)
(-1.110223025e-16 -1.387778781e-17 -0)
(-0 -0 -2.775557562e-17)
(1.110223025e-16 -0 -0)
(-1.110223025e-16 -1.387778781e-17 -0)
(-1.110223025e-16 -1.387778781e-17 2.775557562e-17)
(1.110223025e-16 -1.387778781e-17 1.387778781e-17)
(-0 -0 2.775557562e-17)
(-0 -0 2.775557562e-17)
(-1.110223025e-16 -1.110223025e-16 -0)
(-1.110223025e-16 -1.110223025e-16 -0)
(-0 -0 5.551115123e-17)
(1.110223025e-16 -0 5.551115123e-17)
(-1.110223025e-16 -0 2.775557562e-17)
(1.110223025e-16 -1.387778781e-17 -0)
(-1.110223025e-16 -0 5.551115123e-17)
(-1.110223025e-16 -0 -1.387778781e-17)
(-0 -0 2.775557562e-17)
(-0 -1.387778781e-17 -0)
(-0 -0 -2.775557562e-17)
(-0 2.775557562e-17 -0)
(-0 -0 -0)
(-0 -5.551115123e-17 -0)
(-0 -0 -0)
(-0 -5.551115123e-17 -0)
(-1.110223025e-16 -2.775557562e-17 -0)
(-0 -0 -0)
(-0 -0 -1.387778781e-17)
(-0 2.775557562e-17 -2.775557562e-17)
(1.110223025e-16 2.775557562e-17 -0)
(-1.110223025e-16 -0 -2.775557562e-17)
(-1.110223025e-16 -2.775557562e-17 -1.110223025e-16)
(-0 -2.775557562e-17 -1.387778781e-17)
(-0 -0 -0)
(-0 -0 -0)
(-0 -0 -2.775557562e-17)
(2.220446049e-16 -0 1.110223025e-16)
(-0 2.775557562e-17 5.551115123e-17)
(-1.110223025e-16 2.775557562e-17 2.775557562e-17)
(-1.110223025e-16 -5.551115123e-17 -1.110223025e-16)
(-0 -0 -0)
(-0 -0 -2.775557562e-17)
(-0 2.775557562e-17 2.775557562e-17)
(-0 -0 5.551115123e-17)
(-1.110223025e-16 -0 -0)
(-0 -5.551115123e-17 2.775557562e-17)
(-0 -5.551115123e-17 -0)
(-1.110223025e-16 -2.775557562e-17 -0)
(-1.110223025e-16 2.775557562e-17 5.551115123e-17)
(-1.110223025e-16 -2.775557562e-17 -1.387778781e-17)
(-1.110223025e-16 -5.551115123e-17 -0)
(-0 -0 -0)
(-0 2.775557562e-17 -2.775557562e-17)
(-1.110223025e-16 -5.551115123e-17 -0)
(1.110223025e-16 -5.551115123e-17 -0)
(-0 2.775557562e-17 -0)
(-0 -5.551115123e-17 -0)
(1.110223025e-16 -2.775557562e-17 2.775557562e-17)
(-0 -0 -0)
(-0 -5.551115123e-17 -0)
(-0 -2.775557562e-17 -1.387778781e-17)
(-0 -0 -2.775557562e-17)
(-1.110223025e-16 -2.775557562e-17 -0)
(-1.110223025e-16 2.775557562e-17 -2.775557562e-17)
(-1.110223025e-16 -8.326672685e-17 -1.110223025e-16)
(-0 2.775557562e-17 -1.387778781e-17)
(-1.110223025e-16 -2.775557562e-17 2.775557562e-17)
(-0 2.775557562e-17 -0)
(-0 -5.551115123e-17 -2.775557562e-17)
(-0 -0 -0)
(1.110223025e-16 -2.775557562e-17 2.775557562e-17)
(-1.110223025e-16 -8.326672685e-17 -1.110223025e-16)
(-0 -0 -0)
(-0 -0 -0)
(1.110223025e-16 -2.775557562e-17 5.551115123e-17)
(-0 -8.326672685e-17 2.775557562e-17)
(-0 -0 5.551115123e-17)
(-1.110223025e-16 -2.775557562e-17 -0)
(-1.110223025e-16 -0 -0)
(-0 -0 -0)
(-1.110223025e-16 -5.551115123e-17 -0)
(1.110223025e-16 -0 -0)
(-0 -5.551115123e-17 -0)
(-1.110223025e-16 -0 -2.775557562e-17)
(-0 -5.551115123e-17 -0)
(-2.220446049e-16 -0 -0)
(1.110223025e-16 -2.775557562e-17 -1.387778781e-17)
(1.110223025e-16 -2.775557562e-17 -0)
(-0 -2.775557562e-17 -0)
(-0 -0 -2.775557562e-17)
(2.220446049e-16 -2.775557562e-17 1.110223025e-16)
(-1.110223025e-16 -5.551115123e-17 -0)
(1.110223025e-16 -2.775557562e-17 -0)
(1.110223025e-16 -2.775557562e-17 -0)
(-0 -2.775557562e-17 -2.775557562e-17)
(1.110223025e-16 -0 -0)
(-1.110223025e-16 -2.775557562e-17 2.775557562e-17)
(-0 -0 -0)
(-0 -0 2.775557562e-17)
(-0 -2.775557562e-17 -0)
(-0 -0 -0)
(-0 -2.775557562e-17 5.551115123e-17)
(-1.110223025e-16 -0 -1.387778781e-17)
(-1.110223025e-16 -2.775557562e-17 2.775557562e-17)
(-0 -0 -0)
(-0 -5.551115123e-17 -2.775557562e-17)
(-0 -2.775557562e-17 -0)
(-0 -2.775557562e-17 2.775557562e-17)
(-1.110223025e-16 -0 -2.775557562e-17)
(-1.110223025e-16 -0 -2.775557562e-17)
(-0 -2.775557562e-17 -0)
(-0 -2.775557562e-17 -0)
(-0 -8.326672685e-17 -0)
(1.110223025e-16 -2.775557562e-17 -1.387778781e-17)
(-0 -2.775557562e-17 -2.775557562e-17)
(-1.110223025e-16 -5.551115123e-17 -0)
(-0 -5.551115123e-17 -0)
(-1.110223025e-16 -1.110223025e-16 -1.110223025e-16)
(-0 -2.775557562e-17 -1.387778781e-17)
(1.110223025e-16 -5.551115123e-17 -0)
(-1.110223025e-16 -1.110223025e-16 -1.110223025e-16)
(-0 -0 -2.775557562e-17)
(2.220446049e-16 -2.775557562e-17 1.110223025e-16)
(-0 -8.326672685e-17 -0)
(-0 -2.775557562e-17 5.551115123e-17)
(-0 -2.775557562e-17 -0)
(-0 -8.326672685e-17 -2.775557562e-17)
(-1.110223025e-16 -0 -0)
(-1.110223025e-16 -5.551115123e-17 -0)
(-1.110223025e-16 -2.775557562e-17 -0)
(-0 -5.551115123e-17 2.775557562e-17)
(-1.110223025e-16 -8.326672685e-17 2.775557562e-17)
(-0 -0 -0)
(-1.110223025e-16 2.775557562e-17 5.551115123e-17)
(-1.110223025e-16 -2.775557562e-17 -1.387778781e-17)
(1.110223025e-16 -0 2.775557562e-17)
(-0 -2.775557562e-17 -0)
(-0 -2.775557562e-17 -2.775557562e-17)
(-1.110223025e-16 -5.551115123e-17 -0)
(-0 -0 2.775557562e-17)
(-0 -2.775557562e-17 -0)
(-0 -2.775557562e-17 -0)
(1.110223025e-16 -0 2.775557562e-17)
(-1.110223025e-16 -2.775557562e-17 -2.775557562e-17)
(-0 -2.775557562e-17 -1.387778781e-17)
(-0 -2.775557562e-17 -2.775557562e-17)
(-0 -2.775557562e-17 -0)
(-1.110223025e-16 -1.110223025e-16 -1.110223025e-16)
(-0 -0 -1.387778781e-17)
(-1.110223025e-16 -1.110223025e-16 -1.110223025e-16)
(-0 -5.551115123e-17 -2.775557562e-17)
(-1.110223025e-16 -0 -0)
(-0 -8.326672685e-17 5.551115123e-17)
(-0 -8.326672685e-17 -0)
(-2.220446049e-16 -5.551115123e-17 -0)
(-1.110223025e-16 -5.551115123e-17 -0)
(-1.110223025e-16 -0 -0)
(-0 -0 -0)
(-0 -5.551115123e-17 -0)
(-2.220446049e-16 -5.551115123e-17 -0)
(1.110223025e-16 -0 -1.387778781e-17)
(-0 -0 -0)
(-0 -2.775557562e-17 -2.775557562e-17)
(-0 -0 -0)
(1.110223025e-16 -0 -0)
(1.110223025e-16 -0 -0)
(1.110223025e-16 5.551115123e-17 5.551115123e-17)
(-1.110223025e-16 -0 -0)
(-1.110223025e-16 -0 2.775557562e-17)
(-0 -0 -0)
(-0 -5.551115123e-17 -0)
(-0 -2.775557562e-17 -0)
(-1.110223025e-16 -0 -0)
(1.110223025e-16 -5.551115123e-17 -1.387778781e-17)
(-1.110223025e-16 -5.551115123e-17 -0)
(-0 -0 2.775557562e-17)
(1.110223025e-16 -0 -5.551115123e-17)
(-2.220446049e-16 -5.551115123e-17 -5.551115123e-17)
(-2.220446049e-16 -5.551115123e-17 -5.551115123e-17)
(1.110223025e-16 -0 8.326672685e-17)
(-0 -0 5.551115123e-17)
(1.110223025e-16 -5.551115123e-17 -0)
(-0 -5.551115123e-17 -5.551115123e-17)
(-0 -0 -0)
(-1.110223025e-16 -0 -0)
(-1.110223025e-16 -0 -0)
(-0 -0 -0)
(-0 -5.551115123e-17 -2.775557562e-17)
(1.110223025e-16 -8.326672685e-17 5.551115123e-17)
(-2.220446049e-16 -5.551115123e-17 -2.775557562e-17)
(1.110223025e-16 5.551115123e-17 5.551115123e-17)
(1.110223025e-16 5.551115123e-17 2.775557562e-17)
(-0 -5.551115123e-17 -0)
(-0 -0 -0)
(-1.110223025e-16 -5.551115123e-17 -0)
(1.110223025e-16 5.551115123e-17 2.775557562e-17)
(-0 -0 -0)
)
;
    }
    region0_to_wallFilmRegion_cube01_side3
    {
        type            directMappedWall;
        nFaces          256;
        startFace       2271488;
        sampleMode      nearestPatchFace;
        sampleRegion    wallFilmRegion;
        samplePatch     region0_to_wallFilmRegion_cube01_side3;
        offsetMode      nonuniform;
        offsets         
256
(
(-0 -0 -0)
(-0 -2.775557562e-17 -0)
(5.551115123e-17 -2.775557562e-17 -0)
(-0 -1.387778781e-17 1.387778781e-17)
(-0 -2.775557562e-17 -0)
(-5.551115123e-17 -0 -0)
(-0 -2.775557562e-17 -0)
(-5.551115123e-17 -2.775557562e-17 -0)
(1.110223025e-16 -0 -0)
(-0 -0 -0)
(-1.110223025e-16 -0 -0)
(-2.220446049e-16 -2.775557562e-17 -1.387778781e-17)
(1.110223025e-16 -0 -0)
(1.110223025e-16 -0 -0)
(1.110223025e-16 -0 -0)
(-0 -0 -0)
(-0 1.387778781e-17 -0)
(-0 -0 -0)
(5.551115123e-17 -0 -0)
(-0 -0 1.387778781e-17)
(-5.551115123e-17 -0 -0)
(-5.551115123e-17 1.387778781e-17 -0)
(-0 -0 -0)
(-5.551115123e-17 -0 -0)
(1.110223025e-16 1.387778781e-17 -0)
(1.110223025e-16 2.775557562e-17 1.387778781e-17)
(1.110223025e-16 1.387778781e-17 -0)
(-1.110223025e-16 1.387778781e-17 -0)
(1.110223025e-16 1.387778781e-17 -0)
(1.110223025e-16 1.387778781e-17 -0)
(2.220446049e-16 2.775557562e-17 1.387778781e-17)
(-0 1.387778781e-17 -0)
(-0 -5.551115123e-17 -1.387778781e-17)
(5.551115123e-17 -0 -0)
(-5.551115123e-17 -0 -0)
(-0 -0 1.387778781e-17)
(5.551115123e-17 -0 -0)
(-0 -5.551115123e-17 -1.387778781e-17)
(-0 -0 -0)
(5.551115123e-17 -0 -0)
(-0 -5.551115123e-17 -1.387778781e-17)
(-0 2.775557562e-17 -0)
(-1.110223025e-16 -5.551115123e-17 -1.387778781e-17)
(-1.110223025e-16 -0 -1.387778781e-17)
(-1.110223025e-16 -5.551115123e-17 -1.387778781e-17)
(-0 -5.551115123e-17 -1.387778781e-17)
(1.110223025e-16 2.775557562e-17 -0)
(-0 -5.551115123e-17 -1.387778781e-17)
(-1.665334537e-16 -5.551115123e-17 -2.775557562e-17)
(-0 -0 -1.387778781e-17)
(-5.551115123e-17 -2.775557562e-17 -2.775557562e-17)
(1.110223025e-16 2.775557562e-17 -0)
(-5.551115123e-17 -0 -1.387778781e-17)
(-1.665334537e-16 -5.551115123e-17 -2.775557562e-17)
(-0 -0 -1.387778781e-17)
(-2.220446049e-16 -2.775557562e-17 -2.775557562e-17)
(-2.220446049e-16 -5.551115123e-17 -2.775557562e-17)
(-1.110223025e-16 -2.775557562e-17 -0)
(-2.220446049e-16 -5.551115123e-17 -2.775557562e-17)
(-2.220446049e-16 -2.775557562e-17 1.387778781e-17)
(-3.330669074e-16 -5.551115123e-17 -2.775557562e-17)
(-2.220446049e-16 -5.551115123e-17 -2.775557562e-17)
(-0 -2.775557562e-17 -0)
(-2.220446049e-16 -5.551115123e-17 -2.775557562e-17)
(-0 2.775557562e-17 -1.387778781e-17)
(5.551115123e-17 2.775557562e-17 -0)
(-5.551115123e-17 2.775557562e-17 -0)
(-0 2.775557562e-17 1.387778781e-17)
(5.551115123e-17 2.775557562e-17 -0)
(-0 2.775557562e-17 -1.387778781e-17)
(-0 2.775557562e-17 -0)
(5.551115123e-17 2.775557562e-17 -0)
(-0 2.775557562e-17 -1.387778781e-17)
(-0 -0 -0)
(-1.110223025e-16 2.775557562e-17 -1.387778781e-17)
(-1.110223025e-16 -2.775557562e-17 -1.387778781e-17)
(-1.110223025e-16 2.775557562e-17 -1.387778781e-17)
(-0 2.775557562e-17 -1.387778781e-17)
(1.110223025e-16 -0 -0)
(-0 2.775557562e-17 -1.387778781e-17)
(-1.665334537e-16 -8.326672685e-17 -2.775557562e-17)
(-0 -2.775557562e-17 -1.387778781e-17)
(-5.551115123e-17 -8.326672685e-17 -2.775557562e-17)
(1.110223025e-16 -0 -0)
(-5.551115123e-17 -2.775557562e-17 -1.387778781e-17)
(-1.665334537e-16 -8.326672685e-17 -2.775557562e-17)
(-0 -2.775557562e-17 -1.387778781e-17)
(-2.220446049e-16 -8.326672685e-17 -2.775557562e-17)
(-2.220446049e-16 -8.326672685e-17 -2.775557562e-17)
(-1.110223025e-16 -2.775557562e-17 -0)
(-2.220446049e-16 -8.326672685e-17 -2.775557562e-17)
(-2.220446049e-16 -2.775557562e-17 1.387778781e-17)
(-3.330669074e-16 -8.326672685e-17 -2.775557562e-17)
(-2.220446049e-16 -8.326672685e-17 -2.775557562e-17)
(-0 -2.775557562e-17 -0)
(-2.220446049e-16 -8.326672685e-17 -2.775557562e-17)
(-0 -2.775557562e-17 -1.387778781e-17)
(-5.551115123e-17 -0 -0)
(-1.110223025e-16 -0 -0)
(-1.110223025e-16 -5.551115123e-17 -0)
(-5.551115123e-17 -0 -0)
(-0 -2.775557562e-17 -1.387778781e-17)
(-1.110223025e-16 -0 -0)
(5.551115123e-17 -0 -0)
(-0 -2.775557562e-17 -1.387778781e-17)
(1.110223025e-16 5.551115123e-17 1.387778781e-17)
(-1.110223025e-16 -2.775557562e-17 -1.387778781e-17)
(-0 -0 -0)
(-2.220446049e-16 -2.775557562e-17 -1.387778781e-17)
(-0 -2.775557562e-17 -1.387778781e-17)
(1.110223025e-16 5.551115123e-17 1.387778781e-17)
(-0 -2.775557562e-17 -1.387778781e-17)
(5.551115123e-17 -0 -1.387778781e-17)
(5.551115123e-17 -0 -0)
(-0 -2.775557562e-17 -0)
(5.551115123e-17 -0 1.387778781e-17)
(-0 -0 -0)
(5.551115123e-17 -0 -1.387778781e-17)
(-0 -0 -0)
(5.551115123e-17 -2.775557562e-17 -0)
(1.110223025e-16 -0 -1.387778781e-17)
(-1.110223025e-16 -0 -2.775557562e-17)
(-1.110223025e-16 -0 -1.387778781e-17)
(-1.110223025e-16 2.775557562e-17 -1.387778781e-17)
(1.110223025e-16 -0 -1.387778781e-17)
(-1.110223025e-16 -0 -1.387778781e-17)
(-0 -0 -2.775557562e-17)
(-0 -0 -1.387778781e-17)
(-1.665334537e-16 -1.110223025e-16 -2.775557562e-17)
(-0 -8.326672685e-17 -1.387778781e-17)
(-5.551115123e-17 -1.110223025e-16 -2.775557562e-17)
(1.110223025e-16 -2.775557562e-17 -0)
(-5.551115123e-17 -8.326672685e-17 -1.387778781e-17)
(-1.665334537e-16 -1.110223025e-16 -2.775557562e-17)
(-0 -8.326672685e-17 -1.387778781e-17)
(-2.220446049e-16 -1.110223025e-16 -2.775557562e-17)
(-2.220446049e-16 -1.110223025e-16 -2.775557562e-17)
(-1.110223025e-16 -2.775557562e-17 -0)
(-2.220446049e-16 -1.110223025e-16 -2.775557562e-17)
(-2.220446049e-16 -2.775557562e-17 1.387778781e-17)
(-3.330669074e-16 -1.110223025e-16 -2.775557562e-17)
(-2.220446049e-16 -1.110223025e-16 -2.775557562e-17)
(-0 -2.775557562e-17 -0)
(-2.220446049e-16 -1.110223025e-16 -2.775557562e-17)
(-0 -2.775557562e-17 -1.387778781e-17)
(5.551115123e-17 2.775557562e-17 -0)
(-5.551115123e-17 2.775557562e-17 -0)
(-0 -2.775557562e-17 1.387778781e-17)
(5.551115123e-17 2.775557562e-17 -0)
(-0 -2.775557562e-17 -1.387778781e-17)
(-0 2.775557562e-17 -0)
(5.551115123e-17 2.775557562e-17 -0)
(-0 -2.775557562e-17 -1.387778781e-17)
(-0 2.775557562e-17 -0)
(-1.110223025e-16 -2.775557562e-17 -1.387778781e-17)
(-1.110223025e-16 -0 -1.387778781e-17)
(-1.110223025e-16 -2.775557562e-17 -1.387778781e-17)
(-0 -2.775557562e-17 -1.387778781e-17)
(1.110223025e-16 2.775557562e-17 -0)
(-0 -2.775557562e-17 -1.387778781e-17)
(-1.665334537e-16 -1.110223025e-16 -2.775557562e-17)
(-0 -8.326672685e-17 -1.387778781e-17)
(-5.551115123e-17 -1.110223025e-16 -2.775557562e-17)
(1.110223025e-16 -2.775557562e-17 -0)
(-5.551115123e-17 -8.326672685e-17 -1.387778781e-17)
(-1.665334537e-16 -1.110223025e-16 -2.775557562e-17)
(-0 -8.326672685e-17 -1.387778781e-17)
(-2.220446049e-16 -1.110223025e-16 -2.775557562e-17)
(-2.220446049e-16 -1.110223025e-16 -2.775557562e-17)
(-1.110223025e-16 -2.775557562e-17 -0)
(-2.220446049e-16 -1.110223025e-16 -2.775557562e-17)
(-2.220446049e-16 -5.551115123e-17 1.387778781e-17)
(-3.330669074e-16 -1.110223025e-16 -2.775557562e-17)
(-2.220446049e-16 -1.110223025e-16 -2.775557562e-17)
(-0 -2.775557562e-17 -0)
(-2.220446049e-16 -1.110223025e-16 -2.775557562e-17)
(-0 -0 -1.387778781e-17)
(-5.551115123e-17 -5.551115123e-17 -0)
(-1.110223025e-16 -5.551115123e-17 -0)
(-1.110223025e-16 -5.551115123e-17 -0)
(-5.551115123e-17 -5.551115123e-17 -0)
(-0 -0 -1.387778781e-17)
(-1.110223025e-16 -5.551115123e-17 -0)
(5.551115123e-17 -5.551115123e-17 -0)
(-0 -0 -1.387778781e-17)
(1.110223025e-16 2.775557562e-17 1.387778781e-17)
(-1.110223025e-16 -0 -1.387778781e-17)
(-0 2.775557562e-17 -0)
(-2.220446049e-16 -0 -1.387778781e-17)
(-0 -0 -1.387778781e-17)
(1.110223025e-16 2.775557562e-17 1.387778781e-17)
(-0 -0 -1.387778781e-17)
(-0 -5.551115123e-17 -1.387778781e-17)
(-5.551115123e-17 -0 -2.775557562e-17)
(-5.551115123e-17 -0 -2.775557562e-17)
(-5.551115123e-17 -0 -0)
(-1.110223025e-16 -0 -2.775557562e-17)
(5.551115123e-17 -5.551115123e-17 -1.387778781e-17)
(-0 -0 -2.775557562e-17)
(-5.551115123e-17 -0 -2.775557562e-17)
(-0 -5.551115123e-17 -1.387778781e-17)
(-1.110223025e-16 -5.551115123e-17 -2.775557562e-17)
(-1.110223025e-16 -5.551115123e-17 -1.387778781e-17)
(-1.110223025e-16 -0 -1.387778781e-17)
(-0 -5.551115123e-17 -1.387778781e-17)
(-1.110223025e-16 -5.551115123e-17 -1.387778781e-17)
(-0 -5.551115123e-17 -2.775557562e-17)
(-0 -5.551115123e-17 -1.387778781e-17)
(5.551115123e-17 -0 -0)
(-5.551115123e-17 -0 -0)
(-5.551115123e-17 -0 -0)
(-5.551115123e-17 -0 -0)
(-5.551115123e-17 -0 -0)
(5.551115123e-17 -0 -0)
(-1.110223025e-16 -0 -0)
(-0 -0 -0)
(1.110223025e-16 -0 -0)
(-0 -5.551115123e-17 -1.387778781e-17)
(-1.110223025e-16 -0 -0)
(1.110223025e-16 5.551115123e-17 -0)
(-0 -0 -0)
(-1.110223025e-16 -0 -0)
(-0 -5.551115123e-17 -1.387778781e-17)
(-0 -0 -0)
(-5.551115123e-17 -1.110223025e-16 -0)
(-5.551115123e-17 -0 -0)
(-5.551115123e-17 -0 -1.387778781e-17)
(-0 -0 -0)
(-5.551115123e-17 -0 -0)
(-5.551115123e-17 -1.110223025e-16 -0)
(-0 -0 -0)
(-0 -0 -1.387778781e-17)
(-1.110223025e-16 -1.110223025e-16 -0)
(-0 5.551115123e-17 -0)
(-2.220446049e-16 -1.110223025e-16 -0)
(-1.110223025e-16 -5.551115123e-17 -4.163336342e-17)
(-0 -1.110223025e-16 -0)
(-0 -1.110223025e-16 -0)
(-0 5.551115123e-17 -0)
(-0 -1.110223025e-16 -0)
(-0 -0 -0)
(-5.551115123e-17 -5.551115123e-17 -2.775557562e-17)
(-5.551115123e-17 -5.551115123e-17 -2.775557562e-17)
(-5.551115123e-17 -5.551115123e-17 -0)
(-5.551115123e-17 -5.551115123e-17 -2.775557562e-17)
(5.551115123e-17 -0 -0)
(-0 -5.551115123e-17 -2.775557562e-17)
(-1.110223025e-16 -5.551115123e-17 -2.775557562e-17)
(-0 -0 -0)
(-1.110223025e-16 -5.551115123e-17 -2.775557562e-17)
(-1.110223025e-16 -0 -0)
(-0 -0 -1.387778781e-17)
(-0 -0 -0)
(-1.110223025e-16 -0 -0)
(-0 -5.551115123e-17 -2.775557562e-17)
(-0 -0 -0)
)
;
    }
    region0_to_wallFilmRegion_cube01_side4
    {
        type            directMappedWall;
        nFaces          256;
        startFace       2271744;
        sampleMode      nearestPatchFace;
        sampleRegion    wallFilmRegion;
        samplePatch     region0_to_wallFilmRegion_cube01_side4;
        offsetMode      nonuniform;
        offsets         
256
(
(-1.110223025e-16 -1.110223025e-16 -5.551115123e-17)
(-0 5.551115123e-17 -0)
(-0 -0 -0)
(-0 5.551115123e-17 2.775557562e-17)
(-0 -0 -1.110223025e-16)
(-0 5.551115123e-17 -1.110223025e-16)
(-0 -0 -0)
(-0 -0 -2.775557562e-17)
(-0 -1.387778781e-17 -0)
(-1.110223025e-16 -1.110223025e-16 -1.110223025e-16)
(-5.551115123e-17 -0 -2.775557562e-17)
(-0 2.775557562e-17 -5.551115123e-17)
(-0 -1.387778781e-17 -0)
(-5.551115123e-17 -0 -2.775557562e-17)
(-1.110223025e-16 -1.110223025e-16 -8.326672685e-17)
(-5.551115123e-17 2.775557562e-17 -1.110223025e-16)
(-0 -1.387778781e-17 -2.775557562e-17)
(-5.551115123e-17 -0 -5.551115123e-17)
(-0 -0 1.387778781e-17)
(-0 2.775557562e-17 -0)
(-1.110223025e-16 -0 -0)
(-0 -0 -0)
(-0 -5.551115123e-17 -0)
(-0 -0 -5.551115123e-17)
(-0 -0 -5.551115123e-17)
(-5.551115123e-17 5.551115123e-17 -8.326672685e-17)
(-0 5.551115123e-17 2.775557562e-17)
(-1.110223025e-16 -0 -5.551115123e-17)
(-0 -0 -2.775557562e-17)
(-0 -0 -0)
(-5.551115123e-17 5.551115123e-17 -2.775557562e-17)
(-0 -0 -0)
(-0 -1.387778781e-17 -2.775557562e-17)
(-0 -0 -5.551115123e-17)
(-0 5.551115123e-17 -0)
(-0 -0 -0)
(5.551115123e-17 -1.387778781e-17 -5.551115123e-17)
(-1.110223025e-16 -0 -0)
(-0 -1.387778781e-17 -0)
(-0 -0 -0)