/*---------------------------------------------------------------------------*\
| =========                 |                                                 |
| \\      /  F ield         | OpenFOAM: The Open Source CFD Toolbox           |
|  \\    /   O peration     | Version:  1.4                                   |
|   \\  /    A nd           | Web:      http://www.openfoam.org               |
|    \\/     M anipulation  |                                                 |
\*---------------------------------------------------------------------------*/

FoamFile
{
    version         2.0;
    format          ascii;

    root            "";
    case            "";
    instance        "";
    local           "";

    class           dictionary;
    object          fvSolution;
}

// * * * * * * * * * * * * * * * * * * * * * * * * * * * * * * * * * * * * * //

solvers
{
    rho PCG
    {
        preconditioner   DIC;
        tolerance        0;
        relTol           0;
    };
    pd PCG
    {
        preconditioner   DIC;
        tolerance        1e-06;
        relTol           0.1;
    };
    pdFinal PCG
    {
        preconditioner   DIC;
        tolerance        1e-06;
        relTol           0;
    };
    U PBiCG
    {
        preconditioner   DILU;
        tolerance        1e-05;
        relTol           0;
    };
    h PBiCG
    {
        preconditioner   DILU;
        tolerance        1e-05;
        relTol           0;
    };
    k PBiCG
    {
        preconditioner   DILU;
        tolerance        1e-05;
        relTol           0;
    };
    epsilon PBiCG
    {
        preconditioner   DILU;
        tolerance        1e-05;
        relTol           0;
    };
    R PBiCG
    {
        preconditioner   DILU;
        tolerance        1e-05;
        relTol           0;
    };
}

PISO
{
    nCorrectors     2;
    nNonOrthogonalCorrectors 0;
}


// ************************************************************************* //
