/*--------------------------------*- C++ -*----------------------------------*\
| =========                 |                                                 |
| \\      /  F ield         | OpenFOAM: The Open Source CFD Toolbox           |
|  \\    /   O peration     | Version:  v2112                                 |
|   \\  /    A nd           | Website:  www.openfoam.com                      |
|    \\/     M anipulation  |                                                 |
\*---------------------------------------------------------------------------*/
FoamFile
{
    version     2.0;
    format      ascii;
    class       dictionary;
    object      thermophysicalProperties;
}
// * * * * * * * * * * * * * * * * * * * * * * * * * * * * * * * * * * * * * //

thermoType
{
    type            hePsiThermo;
    mixture         pureMixture;
    transport       const;
    thermo          hConst;
    equationOfState perfectGas;
    specie          specie;
    energy          sensibleEnthalpy;
}

mixture // air at room temperature (293 K)
{
    equationOfState
    {
        p0          103308.85730683322;
        T0          225.24440406165331;
    }
    specie
    {
        molWeight   28.9;
    }
    thermodynamics
    {
        Cp          1005;
        Hf          0;
    }
    transport
    {
        mu          1.82e-05;
        Pr          0.71;
    }
}


// ************************************************************************* //
