/*---------------------------------------------------------------------------*\
| =========                 |                                                 |
| \\      /  F ield         | OpenFOAM: The Open Source CFD Toolbox           |
|  \\    /   O peration     | Version:  1.4                                   |
|   \\  /    A nd           | Web:      http://www.openfoam.org               |
|    \\/     M anipulation  |                                                 |
\*---------------------------------------------------------------------------*/

FoamFile
{
    version         2.0;
    format          ascii;

    root            "";
    case            "";
    instance        "";
    local           "";

    class           volScalarField;
    object          k;
}

// * * * * * * * * * * * * * * * * * * * * * * * * * * * * * * * * * * * * * //


dimensions      [0 2 -2 0 0 0 0];

internalField   uniform 1e-11;

boundaryField
{
    axis
    {
        type            empty;
    }

    inlet           
    {
        type            fixedValue;
        value           uniform 1e-05;
    }

    wall            
    {
        type            fixedValue;
        value           uniform 1e-11;
    }

    atmosphere      
    {
        type            inletOutlet;
        inletValue      uniform 0.001;
        value           uniform 1e-11;
    }

    front         
    {
        type            wedge;
    }

    back         
    {
        type            wedge;
    }
}


// ************************************************************************* //
