/*---------------------------------------------------------------------------*\
| =========                 |                                                 |
| \\      /  F ield         | OpenFOAM: The Open Source CFD Toolbox           |
|  \\    /   O peration     | Version:  1.0                                   |
|   \\  /    A nd           | Web:      http://www.openfoam.org               |
|    \\/     M anipulation  |                                                 |
\*---------------------------------------------------------------------------*/

FoamFile
{
    version         2.0;
    format          ascii;

    root            "";
    case            "";
    instance        "system";
    local           "";

    class           dictionary;
    object          createPatcheDict;
}

// * * * * * * * * * * * * * * * * * * * * * * * * * * * * * * * * * * * * * //

// Tolerance used in matching faces. Absolute tolerance is span of
// face times this factor.
matchTolerance 1E-6;

// Do a synchronisation of coupled points.
pointSync true;


// Patches to create.
// If no patches does a coupled point and face synchronisation anyway.
patches
(
    {
        // Name of new patch
        name sidePatches;

        // Dictionary for new patch
        dictionary
        {
            type cyclic;
            // Optional: used when matching and synchronising points.
            //transform translational;
            //separationVector (-2289 0 0);
        }

        // How to construct: either 'patches' or 'set'
        constructFrom patches;

        // If constructFrom = patches : names of patches
        //patches (periodic-1 periodic-2);
        patches (outlet-side1 outlet-side2);

        // If constructFrom = set : name of faceSet
        set f0;
    }

    //{
    //    name bottom;
    //    // Dictionary for new patch
    //    dictionary
    //    {
    //        type patch;
    //    }
    //
    //    constructFrom set;
    //
    //    patches (half0 half1);
    //
    //    set bottomFaces;
    //}

);

// ************************************************************************* //
