/*--------------------------------*- C++ -*----------------------------------*\
| =========                 |                                                 |
| \\      /  F ield         | OpenFOAM: The Open Source CFD Toolbox           |
|  \\    /   O peration     | Version:  v2112                                 |
|   \\  /    A nd           | Website:  www.openfoam.com                      |
|    \\/     M anipulation  |                                                 |
\*---------------------------------------------------------------------------*/
FoamFile
{
    version     2.0;
    format      ascii;
    class       volVectorField;
    object      U;
}
// * * * * * * * * * * * * * * * * * * * * * * * * * * * * * * * * * * * * * //

dimensions      [0 1 -1 0 0 0 0];

internalField   uniform (0 0 0);

boundaryField
{
    walls
    {
        type            noSlip;
    }

    inlet
    {
        type            fixedValue;
        value           uniform (5 0 0);
    }

    outlet
    {
        type            zeroGradient;
    }

    cycLeft_half0
    {
        type            cyclic;
    }

    cycRight_half0
    {
        type            cyclic;
    }

    frontAndBack
    {
        type            empty;
    }

    cycLeft_half1
    {
        type            cyclic;
    }

    cycRight_half1
    {
        type            cyclic;
    }
}


// ************************************************************************* //
