/*--------------------------------*- C++ -*----------------------------------*\
| =========                 |                                                 |
| \\      /  F ield         | OpenFOAM: The Open Source CFD Toolbox           |
|  \\    /   O peration     | Version:  v1806                                   |
|   \\  /    A nd           | Web:      www.OpenFOAM.com                      |
|    \\/     M anipulation  |                                                 |
\*---------------------------------------------------------------------------*/
FoamFile
{
    version     2.0;
    format      ascii;
    class       dictionary;
    location    "system";
    object      controlDict;
}
// * * * * * * * * * * * * * * * * * * * * * * * * * * * * * * * * * * * * * //

application     interFoam;

startFrom       latestTime;

startTime       0;

stopAt          endTime;

endTime         750.0;

deltaT          0.01;

writeControl    adjustableRunTime;

writeInterval   0.033;

purgeWrite      0;

writeFormat     ascii;

writePrecision  6;

writeCompression off;

timeFormat      general;

timePrecision   6;

runTimeModifiable yes;

adjustTimeStep  on;

maxCo           0.65;

maxAlphaCo      0.65;

maxDeltaT       0.05;

functions
{
    line
    {
        type            sets;
        libs            ("libsampling.so");
        enabled         true;
        writeControl    writeTime;
        writeInterval   1;

        interpolationScheme cellPoint;
        setFormat       raw;
        sets
        (

            line1
            {
                type    uniform;
                axis    distance;
                start   ( 7.9253 19.8599 0.0 );
                end     ( 7.9253 19.8599 30.0 );
                nPoints 1001;
            }

        );

        fixedLocations  false;

        fields
        (
            U alpha.water
        );
    }
}


// ************************************************************************* //
