/*---------------------------------------------------------------------------*\
| =========                 |                                                 |
| \\      /  F ield         | OpenFOAM: The Open Source CFD Toolbox           |
|  \\    /   O peration     | Version:  1.4                                   |
|   \\  /    A nd           | Web:      http://www.openfoam.org               |
|    \\/     M anipulation  |                                                 |
\*---------------------------------------------------------------------------*/

FoamFile
{
    version         2.0;
    format          ascii;

    root            "";
    case            "";
    instance        "";
    local           "";

    class           dictionary;
    object          fvSchemes;
}

// * * * * * * * * * * * * * * * * * * * * * * * * * * * * * * * * * * * * * //

// Time derivative discretisation schemes
ddtSchemes
{
    // Default scheme
    default         Euler;
}

// Gradient discretisation schemes
gradSchemes
{
    // Default gradient scheme
    default         Gauss linear;
    grad(p)         Gauss linear;
}

// Convection discretisation schemes
divSchemes
{
    // Default scheme
    default         none;
    div(phi,U)      Gauss <>;
    div(phid,p)     Gauss <>;
    div(phiU,p)     Gauss linear;
    div(phi,h)      Gauss <>;
    div(phi,k)      Gauss <>;
    div(phi,epsilon) Gauss <>;
    div(phi,R)      Gauss <>;
    div((rho*R))    Gauss linear;
    div(R)          Gauss linear;
    div(U)          Gauss linear;
    div((muEff*dev2(grad(U).T()))) Gauss linear;
}

// Laplacian discretisation schemes
laplacianSchemes
{
    // Default scheme
    default         none;
    laplacian(muEff,U) Gauss linear corrected;
    laplacian(mut,U) Gauss linear corrected;
    laplacian(DkEff,k) Gauss linear corrected;
    laplacian(DepsilonEff,epsilon) Gauss linear corrected;
    laplacian(DREff,R) Gauss linear corrected;
    laplacian((rho*(1|A(U))),p) Gauss linear corrected;
    laplacian(alphaEff,h) Gauss linear corrected;
}

// Interpolation schemes
interpolationSchemes
{
    // Default scheme
    default         linear;
}

// Surface normal gradient schemes
snGradSchemes
{
    // Default scheme
    default         corrected;
}

// Calculation of flux
fluxRequired
{
    // Create storage for flux for all solved variables?
    default         no;
    p;
}


// ************************************************************************* //
