/*--------------------------------*- C++ -*----------------------------------*\
| =========                 |                                                 |
| \\      /  F ield         | OpenFOAM: The Open Source CFD Toolbox           |
|  \\    /   O peration     | Version:  plus                                  |
|   \\  /    A nd           | Web:      www.OpenFOAM.com                      |
|    \\/     M anipulation  |                                                 |
\*---------------------------------------------------------------------------*/
FoamFile
{
    version         2.0;
    format          ascii;
    class           volScalarField;
    object          N2;
}
// * * * * * * * * * * * * * * * * * * * * * * * * * * * * * * * * * * * * * //
dimensions      [0 0 0 0 0 0 0];

internalField   uniform 0.76699;

boundaryField
{
    top
    {
        type            calculated;
    }

    ground
    {
        type            calculated;
    }

    sides
    {
        type            calculated;
    }

    burner
    {
        type            calculated;
    }

    "(region0_to.*)"
    {
        type            calculated;
    }
}


// ************************************************************************* //
