/*--------------------------------*- C++ -*----------------------------------*\
| =========                 |                                                 |
| \\      /  F ield         | OpenFOAM: The Open Source CFD Toolbox           |
|  \\    /   O peration     | Version:  v2112                                 |
|   \\  /    A nd           | Website:  www.openfoam.com                      |
|    \\/     M anipulation  |                                                 |
\*---------------------------------------------------------------------------*/
FoamFile
{
    version     2.0;
    format      ascii;
    class       dictionary;
    object      obstaclesDict;
}
// * * * * * * * * * * * * * * * * * * * * * * * * * * * * * * * * * * * * * //

_17
{
    groupId 17;

    locations
    (
        (0 0 0)
        (0 0 0.30)
    );

    ypipe { direction y; length 0.947; diameter 0.026; }

    obstacles
    (
        box { point (0       0.05    1.05); size (3.05 0.006 0.05); }
        box { point (0       0.997   1.05); size (3.05 0.006 0.05); }
        box { point (0       1.05    1.05); size (3.05 0.006 0.05); }
        box { point (0       1.997   1.05); size (3.05 0.006 0.05); }
        box { point (0       2.05    1.05); size (3.05 0.006 0.05); }
        box { point (0       2.997   1.05); size (3.05 0.006 0.05); }

        cyl { point (0.025   0.05    1.075); $ypipe; }
        cyl { point (0.275   0.05    1.075); $ypipe; }
        cyl { point (0.525   0.05    1.075); $ypipe; }
        cyl { point (0.775   0.05    1.075); $ypipe; }
        cyl { point (1.025   0.05    1.075); $ypipe; }
        cyl { point (1.275   0.05    1.075); $ypipe; }
        cyl { point (1.525   0.05    1.075); $ypipe; }
        cyl { point (1.775   0.05    1.075); $ypipe; }
        cyl { point (2.025   0.05    1.075); $ypipe; }
        cyl { point (2.275   0.05    1.075); $ypipe; }
        cyl { point (2.525   0.05    1.075); $ypipe; }
        cyl { point (2.775   0.05    1.075); $ypipe; }
        cyl { point (3.025   0.05    1.075); $ypipe; }
        cyl { point (0.025   1.05    1.075); $ypipe; }
        cyl { point (0.275   1.05    1.075); $ypipe; }
        cyl { point (0.525   1.05    1.075); $ypipe; }
        cyl { point (0.775   1.05    1.075); $ypipe; }
        cyl { point (1.025   1.05    1.075); $ypipe; }
        cyl { point (1.275   1.05    1.075); $ypipe; }
        cyl { point (1.525   1.05    1.075); $ypipe; }
        cyl { point (1.775   1.05    1.075); $ypipe; }
        cyl { point (2.025   1.05    1.075); $ypipe; }
        cyl { point (2.275   1.05    1.075); $ypipe; }
        cyl { point (2.525   1.05    1.075); $ypipe; }
        cyl { point (2.775   1.05    1.075); $ypipe; }
        cyl { point (3.025   1.05    1.075); $ypipe; }
        cyl { point (0.025   2.05    1.075); $ypipe; }
        cyl { point (0.275   2.05    1.075); $ypipe; }
        cyl { point (0.525   2.05    1.075); $ypipe; }
        cyl { point (0.775   2.05    1.075); $ypipe; }
        cyl { point (1.025   2.05    1.075); $ypipe; }
        cyl { point (1.275   2.05    1.075); $ypipe; }
        cyl { point (1.525   2.05    1.075); $ypipe; }
        cyl { point (1.775   2.05    1.075); $ypipe; }
        cyl { point (2.025   2.05    1.075); $ypipe; }
        cyl { point (2.275   2.05    1.075); $ypipe; }
        cyl { point (2.525   2.05    1.075); $ypipe; }
        cyl { point (2.775   2.05    1.075); $ypipe; }
        cyl { point (3.025   2.05    1.075); $ypipe; }
    );
}

// ************************************************************************* //
