/*--------------------------------*- C++ -*----------------------------------*\
| =========                 |                                                 |
| \\      /  F ield         | OpenFOAM: The Open Source CFD Toolbox           |
|  \\    /   O peration     | Version:  v2112                                 |
|   \\  /    A nd           | Website:  www.openfoam.com                      |
|    \\/     M anipulation  |                                                 |
\*---------------------------------------------------------------------------*/
FoamFile
{
    version     2.0;
    format      ascii;
    class       dictionary;
    object      obstaclesDict;
}
// * * * * * * * * * * * * * * * * * * * * * * * * * * * * * * * * * * * * * //

_41
{
    groupId 41;

    zpipe { direction z; length 0.947; diameter 0.026; }

    obstacles
    (
        box { point (0.531   0.5     0.05 ); size (1.938   0.05    0.006); }
        box { point (0.531   0.5     0.997); size (1.938   0.05    0.006); }
        box { point (0.531   2.5     0.05 ); size (1.938   0.05    0.006); }
        box { point (0.531   2.5     0.997); size (1.938   0.05    0.006); }
        box { point (0.5     0.531   0.05 ); size (0.05    1.938   0.006); }
        box { point (0.5     0.531   0.997); size (0.05    1.938   0.006); }
        box { point (2.5     0.531   0.05 ); size (0.05    1.938   0.006); }
        box { point (2.5     0.531   0.997); size (0.05    1.938   0.006); }

        cyl { point (0.625   0.525   0.056); $zpipe; }
        cyl { point (0.875   0.525   0.056); $zpipe; }
        cyl { point (1.125   0.525   0.056); $zpipe; }
        cyl { point (1.375   0.525   0.056); $zpipe; }
        cyl { point (1.625   0.525   0.056); $zpipe; }
        cyl { point (1.875   0.525   0.056); $zpipe; }
        cyl { point (2.125   0.525   0.056); $zpipe; }
        cyl { point (2.375   0.525   0.056); $zpipe; }
        cyl { point (0.625   2.525   0.056); $zpipe; }
        cyl { point (0.875   2.525   0.056); $zpipe; }
        cyl { point (1.125   2.525   0.056); $zpipe; }
        cyl { point (1.375   2.525   0.056); $zpipe; }
        cyl { point (1.625   2.525   0.056); $zpipe; }
        cyl { point (1.875   2.525   0.056); $zpipe; }
        cyl { point (2.125   2.525   0.056); $zpipe; }
        cyl { point (2.375   2.525   0.056); $zpipe; }
        cyl { point (0.525   0.625   0.056); $zpipe; }
        cyl { point (0.525   0.875   0.056); $zpipe; }
        cyl { point (0.525   1.125   0.056); $zpipe; }
        cyl { point (0.525   1.375   0.056); $zpipe; }
        cyl { point (0.525   1.625   0.056); $zpipe; }
        cyl { point (0.525   1.875   0.056); $zpipe; }
        cyl { point (0.525   2.125   0.056); $zpipe; }
        cyl { point (0.525   2.375   0.056); $zpipe; }
        cyl { point (2.525   0.625   0.056); $zpipe; }
        cyl { point (2.525   0.875   0.056); $zpipe; }
        cyl { point (2.525   1.125   0.056); $zpipe; }
        cyl { point (2.525   1.375   0.056); $zpipe; }
        cyl { point (2.525   1.625   0.056); $zpipe; }
        cyl { point (2.525   1.875   0.056); $zpipe; }
        cyl { point (2.525   2.125   0.056); $zpipe; }
        cyl { point (2.525   2.375   0.056); $zpipe; }
    );
}

// ************************************************************************* //
