/*---------------------------------------------------------------------------*\
| =========                 |                                                 |
| \\      /  F ield         | OpenFOAM: The Open Source CFD Toolbox           |
|  \\    /   O peration     | Version:  1.4                                   |
|   \\  /    A nd           | Web:      http://www.openfoam.org               |
|    \\/     M anipulation  |                                                 |
\*---------------------------------------------------------------------------*/

FoamFile
{
    version             1.0;
    format              ascii;

    root                "";
    case                "";
    instance            "";
    local               "";
    
    class               dictionary;
    object              fvSchemes.cfg;
}

// * * * * * * * * * * * * * * * * * * * * * * * * * * * * * * * * * * * * * //

include "$FOAMX_CONFIG/dictionaries/fvSchemes/fvSchemes.cfg";

entries
{
    include "$FOAMX_CONFIG/dictionaries/fvSchemes/ddt/transient.cfg";

    include "../../../incompressible/turbFoam/FoamX/fvSchemes/gradSchemes.cfg";
    include "../../../incompressible/icoFoam/FoamX/fvSchemes/divSchemes.cfg";
    include "../../../incompressible/icoFoam/FoamX/fvSchemes/laplacianSchemes.cfg";
    include "../../../incompressible/turbFoam/FoamX/fvSchemes/interpolationSchemes.cfg";
    include "$FOAMX_CONFIG/dictionaries/fvSchemes/snGrad/defaultOnly.cfg";
    include "$FOAMX_CONFIG/dictionaries/fvSchemes/flux/p.cfg"; 
}

default
{
    include "defaults/system/fvSchemes";
}

// ************************************************************************* //
