/*--------------------------------*- C++ -*----------------------------------*\
| =========                 |                                                 |
| \\      /  F ield         | OpenFOAM: The Open Source CFD Toolbox           |
|  \\    /   O peration     | Version:  v2112                                 |
|   \\  /    A nd           | Website:  www.openfoam.com                      |
|    \\/     M anipulation  |                                                 |
\*---------------------------------------------------------------------------*/
FoamFile
{
    version     2.0;
    format      ascii;
    class       dictionary;
    object      fvSchemes;
}
// * * * * * * * * * * * * * * * * * * * * * * * * * * * * * * * * * * * * * //

ddtSchemes
{
    default         backward 1;
}

gradSchemes
{
    default         Gauss linear;
}

divSchemes
{
    default         none;

    div(phi,U)      Gauss LUST grad(U);

    div(phi,h)      Gauss LUST grad(h);
    div(phi,K)      Gauss linear;
    div(phiv,p)     Gauss linear;

    turbulence      Gauss limitedLinear 1;
    div(phi,k)      $turbulence;
    div(phi,nuTilda) $turbulence;
    div(phi,epsilon) $turbulence;
    div(phi,B)      $turbulence;
    div(B)          Gauss linear;

    div(((rho*nuEff)*dev2(T(grad(U))))) Gauss linear;
}

laplacianSchemes
{
    default         Gauss linear corrected;
}

interpolationSchemes
{
    default         linear;
}

snGradSchemes
{
    default         corrected;
}

wallDist
{
     method          meshWave;
}


// ************************************************************************* //
