/*--------------------------------*- C++ -*----------------------------------*\
| =========                 |                                                 |
| \\      /  F ield         | OpenFOAM: The Open Source CFD Toolbox           |
|  \\    /   O peration     | Version:  v2112                                 |
|   \\  /    A nd           | Website:  www.openfoam.com                      |
|    \\/     M anipulation  |                                                 |
\*---------------------------------------------------------------------------*/
FoamFile
{
    version     2.0;
    format      ascii;
    class       dictionary;
    object      controlDict;
}
// * * * * * * * * * * * * * * * * * * * * * * * * * * * * * * * * * * * * * //

application     sprayFoam;

startFrom       startTime;

startTime       0;

stopAt          endTime;

endTime         0.01;

deltaT          2.5e-06;

writeControl    adjustable;

writeInterval   5e-05;

purgeWrite      0;

writeFormat     binary;

writePrecision  6;

writeCompression off;

timeFormat      general;

timePrecision   6;

adjustTimeStep  yes;

maxCo           0.1;

runTimeModifiable yes;


functions
{
    distribution1
    {
        // Mandatory entries
        type            particleDistribution;
        libs            (fieldFunctionObjects);
        cloud           sprayCloud;
        nameVsBinWidth
        (
            (d 1e-5)
            (U 10)
        );
        setFormat       raw;

        // Optional entries
        tagField        none;

        // Optional (inherited) entries
        writePrecision  10;
        writeToFile     true;
        useUserTime     true;

        region          region0;
        enabled         true;
        log             true;
        timeStart       0;
        timeEnd         1000;
        executeControl  timeStep;
        executeInterval 1;
        writeControl    writeTime;
        writeInterval   -1;
    }
}


// ************************************************************************* //
