/*--------------------------------*- C++ -*----------------------------------*\
| =========                 |                                                 |
| \\      /  F ield         | OpenFOAM: The Open Source CFD Toolbox           |
|  \\    /   O peration     | Version:  v2112                                 |
|   \\  /    A nd           | Website:  www.openfoam.com                      |
|    \\/     M anipulation  |                                                 |
\*---------------------------------------------------------------------------*/
FoamFile
{
    version     2.0;
    format      ascii;
    class       volScalarField;
    location    "0/leftSolid";
    object      p;
}
// * * * * * * * * * * * * * * * * * * * * * * * * * * * * * * * * * * * * * //

dimensions      [1 -1 -2 0 0 0 0];


internalField   uniform 100000;

boundaryField
{
    #includeEtc "caseDicts/setConstraintTypes"

    left
    {
        type            calculated;
        value           $internalField;
    }
    right
    {
        type            calculated;
        value           $internalField;
    }
    top
    {
        type            calculated;
        value           $internalField;
    }
    bottom
    {
        type            calculated;
        value           $internalField;
    }
}


// ************************************************************************* //
