/*--------------------------------*- C++ -*----------------------------------*\
| =========                 |                                                 |
| \\      /  F ield         | OpenFOAM: The Open Source CFD Toolbox           |
|  \\    /   O peration     | Version:  v2112                                 |
|   \\  /    A nd           | Website:  www.openfoam.com                      |
|    \\/     M anipulation  |                                                 |
\*---------------------------------------------------------------------------*/
FoamFile
{
    version     2.0;
    format      ascii;
    class       volScalarField;
    location    "0/leftSolid";
    object      T;
}
// * * * * * * * * * * * * * * * * * * * * * * * * * * * * * * * * * * * * * //

dimensions      [ 0 0 0 1 0 0 0 ];

internalField   uniform 300;

boundaryField
{
    #includeEtc "caseDicts/setConstraintTypes"

    left
    {
        type            zeroGradient;
        value           $internalField;
    }
    right
    {
        type            zeroGradient;
        value           $internalField;
    }
    bottom
    {
        //type            zeroGradient;
        //value           $internalField;
        type            uniformFixedValue;
        uniformValue    270;
    }
    top
    {
        type            compressible::turbulentTemperatureCoupledBaffle2Mixed;
        value           $internalField;
        Tnbr            T;
        kappaMethod     solidThermo;
    }
}


// ************************************************************************* //
