/*--------------------------------*- C++ -*----------------------------------*\
| =========                 |                                                 |
| \\      /  F ield         | OpenFOAM: The Open Source CFD Toolbox           |
|  \\    /   O peration     | Version:  dev                                   |
|   \\  /    A nd           | Web:      www.OpenFOAM.org                      |
|    \\/     M anipulation  |                                                 |
\*---------------------------------------------------------------------------*/
FoamFile
{
    version     2.0;
    format      ascii;
    class       dictionary;
    location    "constant";
    object      reactingCloud1Properties;
}
// * * * * * * * * * * * * * * * * * * * * * * * * * * * * * * * * * * * * * //

solution
{
    active          true;
    coupled         true;
    cellValueSourceCorrection on;

    interpolationSchemes
    {
        rho             cell;
        U               cell; // cellPoint;
        mu              cell;
        T               cell;
        Cp              cell;
        p               cell;
    }

    integrationSchemes
    {
        U               Euler;
        T               Analytical;
    }
}

radiation       off;

parcelTypeId    1;

constantProperties
{
    rhoMin          1e-15;
    TMin            200;
    pMin            1000;
    rho0            1000;
    youngsModulus   0;
    poissonsRatio   0;
    minParticleMass 1e-15;
    T0              300;
    cp0             4187;
    epsilon0        1;
    f0              0.5;
    Pr              0.7;
    Tvap            273;
    Tbp             373;
    constantVolume  false;
}

particleForces
{
    gravity         on;
    virtualMass     off;
    pressureGradient off;
    paramagnetic    off;
}

subModels
{
    InjectionModel  ConeInjectionMP;

    DragModel       SphereDrag;

    DispersionModel none;

    CollisionModel  none;

    PatchInteractionModel StandardWallInteraction;

    HeatTransferModel none; //RanzMarshall;

    CompositionModel SinglePhaseMixture;

    PhaseChangeModel none; // LiquidEvaporation;

    PostProcessingModel none;

    SurfaceFilmModel ThermoSurfaceFilm; // none;

    ConeInjectionCoeffs
    {
        SOI             0.000;
        duration        10.000;
        position        (0.5 0.8 1.45);
        direction       (0 -0.5 -1);
        massTotal       massTotal [ 1 0 0 0 0 ] 0.025; // 1e-3;
        parcelsPerSecond 500;
        parcelBasisType mass;
        flowRateProfile constant 0.01;
        Umag            constant 5;
        thetaInner      constant 0;
        thetaOuter      constant 30;

        parcelPDF
        {
            pdfType         RosinRammler;
            RosinRammlerPDF
            {
                minValue        5e-04;
                maxValue        0.0012;
                d               7.5e-05;
                n               0.5;
            }
        }
    }

    ConeInjectionMPCoeffs
    {
        SOI             0.000;
        duration        20.000;
        positionsFile   "reactingCloud1Positions";
        axesFile        "reactingCloud1Axes";
        massTotal       massTotal [ 1 0 0 0 0 ] 10;
        parcelsPerInjector 20000;
        parcelsPerSecond 500;
        parcelBasisType mass;
        flowRateProfile constant 0.1;
        Umag            constant 3.0;
        thetaInner      constant 0;
        thetaOuter      constant 45;

        parcelPDF
        {
            pdfType         RosinRammler;
            RosinRammlerPDF
            {
                minValue        5e-04;
                maxValue        0.0012;
                d               7.5e-05;
                n               0.5;
            }
        }

    }


    StandardWallInteractionCoeffs
    {
        type            rebound;
    }

    RanzMarshallCoeffs
    {
        BirdCorrection  false;
    }

    SinglePhaseMixtureCoeffs
    {
        phases
        (
            liquid
            {
                H2O 1;
            }
        );
    }

    LiquidEvaporationCoeffs
    {
        activeLiquids
        (
            H2O
        );
    }

    ThermoSurfaceFilmCoeffs
    {}
}


// ************************************************************************* //
