/*--------------------------------*- C++ -*----------------------------------*\
| =========                 |                                                 |
| \\      /  F ield         | OpenFOAM: The Open Source CFD Toolbox           |
|  \\    /   O peration     | Version:  1.6                                   |
|   \\  /    A nd           | Web:      www.OpenFOAM.org                      |
|    \\/     M anipulation  |                                                 |
\*---------------------------------------------------------------------------*/
FoamFile
{
    version     2.0;
    format      ascii;
    class       dictionary;
    location    "constant";
    object      SurfaceFilmProperties;
}
// * * * * * * * * * * * * * * * * * * * * * * * * * * * * * * * * * * * * * //

//surfaceFilmModel kinematicSingleLayer;
surfaceFilmModel thermoSingleLayer;

filmRegionName  wallFilmRegion;

active          true;

kinematicSingleLayerCoeffs
{
    thermoModel constant;
    rho0        rho0 [1 -3 0 0 0] 1000;
    mu0         mu0 [1 -1 -1 0 0] 1e-3;
    sigma0      sigma0 [1 0 -2 0 0] 0.07;

    deltaStable deltaStable [0 1 0 0 0] 0.0005;
    Cf          0.005;

    injectionModel removeInjection; // none; // cloudInjection;
}


thermoSingleLayerCoeffs
{
    thermoModel singleComponent; // constant
    liquid      H2O;
//    thermoModel constant;
//    rho0        rho0 [1 -3 0 0 0] 1000;
//    mu0         mu0 [1 -1 -1 0 0] 1e-3;
//    sigma0      sigma0 [1 0 -2 0 0] 0.07;
//    cp0         cp0 [0 2 -2 -1 0] 4187;

    deltaStable deltaStable [0 1 0 0 0] 0;
    Cf          0.005;

    upperSurfaceModels
    {
//        heatTransferModel constant;
//        constantCoeffs
//        {
//            c0              1e-8;
//        }

        heatTransferModel mappedConvectiveHeatTransfer;
    }

    lowerSurfaceModels
    {
        heatTransferModel constant;
        constantCoeffs
        {
            c0              50;
        }
    }

    injectionModel cloudInjection; // removeInjection; // none; // cloudInjection;

    cloudInjectionCoeffs
    {
        cloudName    reactingCloud1;

        particlesPerParcel 100.0;

        parcelPDF
        {
            pdfType         RosinRammler;
            RosinRammlerPDF
            {
                minValue        5e-04;
                maxValue        0.0012;
                d               7.5e-05;
                n               0.5;
            }
        }
    }

    phaseChangeModel standardPhaseChange;

    standardPhaseChangeCoeffs
    {
        deltaMin        1e-8;
        L               1.0;
    }
}

