/*--------------------------------*- C++ -*----------------------------------*\
| =========                 |                                                 |
| \\      /  F ield         | OpenFOAM: The Open Source CFD Toolbox           |
|  \\    /   O peration     | Version:  dev                                   |
|   \\  /    A nd           | Web:      www.OpenFOAM.org                      |
|    \\/     M anipulation  |                                                 |
\*---------------------------------------------------------------------------*/
FoamFile
{
    version     2.0;
    format      ascii;
    class       polyBoundaryMesh;
    location    "constant/polyMesh";
    object      boundary;
}
// * * * * * * * * * * * * * * * * * * * * * * * * * * * * * * * * * * * * * //

6
(
    topAndBottom
    {
        type            patch;
        nFaces          72;
        startFace       22911;
    }
    inlet
    {
        type            patch;
        nFaces          40;
        startFace       22983;
    }
    outlet
    {
        type            patch;
        nFaces          62;
        startFace       23023;
    }
    front
    {
        type            empty;
        inGroups        1(empty);
        nFaces          11431;
        startFace       23085;
    }
    back
    {
        type            empty;
        inGroups        1(empty);
        nFaces          11431;
        startFace       34516;
    }
    wing
    {
        type            wall;
        inGroups        1(wall);
        nFaces          378;
        startFace       45947;
    }
)

// ************************************************************************* //
