/*--------------------------------*- C++ -*----------------------------------*\
| =========                 |                                                 |
| \\      /  F ield         | OpenFOAM: The Open Source CFD Toolbox           |
|  \\    /   O peration     | Version:  v1906                                 |
|   \\  /    A nd           | Web:      www.OpenFOAM.com                      |
|    \\/     M anipulation  |                                                 |
\*---------------------------------------------------------------------------*/
FoamFile
{
    version     2.0;
    format      ascii;
    class       dictionary;
    location    "system";
    object      cuttingPlane;
}
// * * * * * * * * * * * * * * * * * * * * * * * * * * * * * * * * * * * * * //

functions
{
cuttingPlane
{
    type            surfaces;
    libs            ("libsampling.so");
    writeControl    writeTime;

    surfaceFormat   vtk;
    fields          ( p U );

    interpolationScheme cellPoint;

    surfaces
    (
        yNormal
        {
            type            cuttingPlane;
            planeType       pointAndNormal;
            pointAndNormalDict
            {
                point   (0 0 0.063);
                normal  (0 0 1);
            }
            interpolate     true;
        }
    );
}
}

// ************************************************************************* //
