/*--------------------------------*- C++ -*----------------------------------*\
| =========                 |                                                 |
| \\      /  F ield         | OpenFOAM: The Open Source CFD Toolbox           |
|  \\    /   O peration     | Version:  1.4.1                                 |
|   \\  /    A nd           | Web:      http://www.openfoam.org               |
|    \\/     M anipulation  |                                                 |
\*---------------------------------------------------------------------------*/

FoamFile
{
    version 2.0;
    format ascii;

    root "/home/dm2/henry/OpenFOAM/OpenFOAM-1.4.1/tutorials/mhdFoam";
    case "hartmann";
    instance "constant";
    local "polyMesh";

    class polyBoundaryMesh;
    object boundary;
}

// * * * * * * * * * * * * * * * * * * * * * * * * * * * * * * * * * * * * * //

5
(
inlet
{
    type patch;
    physicalType inlet;
    nFaces 40;
    startFace 7860;
}

outlet
{
    type patch;
    physicalType outlet;
    nFaces 40;
    startFace 7900;
}

lowerWall
{
    type patch;
    physicalType wall;
    nFaces 100;
    startFace 7940;
}

upperWall
{
    type patch;
    physicalType wall;
    nFaces 100;
    startFace 8040;
}

frontAndBack
{
    type empty;
    physicalType empty;
    nFaces 8000;
    startFace 8140;
}
)

// ************************************************************************* //
