/*--------------------------------*- C++ -*----------------------------------*\
| =========                 |                                                 |
| \\      /  F ield         | OpenFOAM: The Open Source CFD Toolbox           |
|  \\    /   O peration     | Version:  dev                                   |
|   \\  /    A nd           | Web:      www.OpenFOAM.com                      |
|    \\/     M anipulation  |                                                 |
\*---------------------------------------------------------------------------*/
FoamFile
{
    version     2.0;
    format      ascii;
    class       dictionary;
    location    "constant";
    object      reactingCloud1Properties;
}
// * * * * * * * * * * * * * * * * * * * * * * * * * * * * * * * * * * * * * //

solution
{
    active          true;
    coupled         true;
    cellValueSourceCorrection on;

    interpolationSchemes
    {
        rho             cell;
        U               cellPoint;
        mu              cell;
        T               cell;
        Cp              cell;
        p               cell;
    }

    integrationSchemes
    {
        U               Euler;
        T               Analytical;
    }
}

radiation       off;

parcelTypeId    1;

constantProperties
{
    rhoMin          1e-15;
    TMin            200;
    pMin            1000;
    rho0            1000;
    youngsModulus   1e9;
    poissonsRatio   0.35;
    minParticleMass 1e-15;
    T0              300;
    cp0             4187;
    epsilon0        1;
    f0              0.5;
    Pr              0.7;
    Tvap            273;
    Tbp             373;
    constantVolume  false;
}

particleForces
{
    gravity             off;
    virtualMass         off;
    pressureGradient    off;
    paramagnetic        off;
}

subModels
{
    InjectionModel  ManualInjection;

    DragModel       SphereDrag;

    DispersionModel none;

    PatchInteractionModel StandardWallInteraction;

    HeatTransferModel RanzMarshall;

    CompositionModel SinglePhaseMixture;

    PhaseChangeModel LiquidEvaporation;

    PostProcessingModel none;

    CollisionModel none;

    SurfaceFilmModel none;

    ManualInjectionCoeffs
    {
        massTotal       massTotal [ 1 0 0 0 0 ] 1e-8;
        parcelBasisType mass;
        SOI             0;
        positionsFile   "reactingCloud1Positions";
        U0              ( 0 0 0 );
        parcelPDF
        {
            pdfType         uniform;
            uniformPDF
            {
                minValue        1e-04;
                maxValue        1e-04;
            }
        }
    }

    StandardWallInteractionCoeffs
    {
        type            rebound;
    }

    RanzMarshallCoeffs
    {
        BirdCorrection  true;
    }

    SinglePhaseMixtureCoeffs
    {
        phases
        (
            liquid
            {
                H2O 1;
            }
        );
    }

    LiquidEvaporationCoeffs
    {
        enthalpyTransfer enthalpyDifference;

        activeLiquids
        (
            H2O
        );
    }
}


// ************************************************************************* //
