/*--------------------------------*- C++ -*----------------------------------*\
| =========                 |                                                 |
| \\      /  F ield         | OpenFOAM: The Open Source CFD Toolbox           |
|  \\    /   O peration     | Version:  dev                                   |
|   \\  /    A nd           | Web:      www.OpenFOAM.org                      |
|    \\/     M anipulation  |                                                 |
\*---------------------------------------------------------------------------*/
FoamFile
{
    version         2.0;
    format          ascii;
    class           dictionary;
    object          foamyHexMeshDict;
}
// * * * * * * * * * * * * * * * * * * * * * * * * * * * * * * * * * * * * * //

// Include defaults parameters from master dictionary
#include "$WM_PROJECT_DIR/etc/caseDicts/foamyHexMeshDict"

// Any scalar with a name <name>Coeff specifies a value that will be implemented
// as a faction of the target cell size

geometry
{
    flange.obj
    {
        name flange;
        type triSurfaceMesh;
    }
}


backgroundMeshDecomposition
{
    minLevels 1;
    sampleResolution 4;
    spanScale 5;
    maxCellWeightCoeff 10;
}


surfaceConformation
{
    locationInMesh                      (0 0 0);

    geometryToConformTo
    {
        flange
        {
            featureMethod           extendedFeatureEdgeMesh;
            extendedFeatureEdgeMesh "flange.extendedFeatureEdgeMesh";
        }
    }
}


initialPoints
{
    initialPointsMethod         autoDensity;

    autoDensityCoeffs
    {
        minLevels               2;
        maxSizeRatio            3.0;
        sampleResolution        4;
        surfaceSampleResolution 5;
    }
}


motionControl
{
    defaultCellSize             0.0008;

    minimumCellSizeCoeff        0;

    // For background cell size and alignment grid
    maxSmoothingIterations      100;

    maxRefinementIterations     0;

    shapeControlFunctions
    {
        flange
        {
            type                        searchableSurfaceControl;
            priority                    1;
            mode                        inside;
            surfaceCellSizeFunction     uniformValue;
            uniformValueCoeffs
            {
                surfaceCellSizeCoeff    1;
            }
            cellSizeFunction            surfaceOffsetLinearDistance;
            surfaceOffsetLinearDistanceCoeffs
            {
                distanceCellSizeCoeff   1;
                surfaceOffsetCoeff      2.5;
                linearDistanceCoeff     2.5;
            }
        }
    }

    adaptiveLinearCoeffs
    {
        relaxationStart         1.0;
        relaxationEnd           0.0;
    }

    objOutput                   no;

    timeChecks                  no;
}


meshQualityControls
{
    #include "meshQualityDict"
}


// ************************************************************************* //
