/*--------------------------------*- C++ -*----------------------------------*\
| =========                 |                                                 |
| \\      /  F ield         | OpenFOAM: The Open Source CFD Toolbox           |
|  \\    /   O peration     | Version:  v2112                                 |
|   \\  /    A nd           | Website:  www.openfoam.com                      |
|    \\/     M anipulation  |                                                 |
\*---------------------------------------------------------------------------*/
FoamFile
{
    version     2.0;
    format      ascii;
    class       dictionary;
    object      fvSolution;
}
// * * * * * * * * * * * * * * * * * * * * * * * * * * * * * * * * * * * * * //

solvers
{
    "(D|Dcorr)"
    {
        solver          GAMG;
        tolerance       1e-06;
        relTol          0.99;
        smoother        GaussSeidel;
        nCellsInCoarsestLevel 6;
    }
}

stressAnalysis
{
    nCorrectors     1;
    D               1e-10;
    accelerationFactor 2;
}


// ************************************************************************* //
