/*--------------------------------*- C++ -*----------------------------------*\
| =========                 |                                                 |
| \\      /  F ield         | OpenFOAM: The Open Source CFD Toolbox           |
|  \\    /   O peration     | Version:  dev                                   |
|   \\  /    A nd           | Web:      www.OpenFOAM.org                      |
|    \\/     M anipulation  |                                                 |
\*---------------------------------------------------------------------------*/
FoamFile
{
    version     2.0;
    format      ascii;
    class       dictionary;
    location    "constant";
    object      sourcesProperties;
}
// * * * * * * * * * * * * * * * * * * * * * * * * * * * * * * * * * * * * * //

fixedTemperaure1
{
    type            fixedTemperatureSource;
    active          true;
    timeStart       0;
    duration        1000000;
    selectionMode   cellZone;
    cellZone        porosity;

    fixedTemperatureSourceCoeffs
    {
        mode            uniform;
        temperature     350;
    }
}


porosity1
{
    type            explicitPorositySource;
    active          true;
    timeStart       0;
    duration        1000000;
    selectionMode   cellZone;
    cellZone        porosity;

    explicitPorositySourceCoeffs
    {
        type            fixedCoeff;
        active          yes;
        cellZone        porosity;

        fixedCoeffCoeffs
        {
            alpha       alpha [0 0 -1 0 0 0 0] (500 -1000 -1000);
            beta        beta  [0 -1 0 0 0 0 0] (0 0 0);
            rhoRef      1;

            coordinateSystem
            {
                e1  (0.70710678 0.70710678 0);
                e2  (0 0 1);
            }
        }
    }
}


************************************************************************* //
