/*--------------------------------*- C++ -*----------------------------------*\
| =========                 |                                                 |
| \\      /  F ield         | OpenFOAM: The Open Source CFD Toolbox           |
|  \\    /   O peration     | Version:  v1806                                 |
|   \\  /    A nd           | Web:      www.OpenFOAM.com                      |
|    \\/     M anipulation  |                                                 |
\*---------------------------------------------------------------------------*/
FoamFile
{
    version     2.0;
    format      ascii;
    class       volScalarField;
    object      T;
}
// * * * * * * * * * * * * * * * * * * * * * * * * * * * * * * * * * * * * * //

dimensions          [0 0 0 1 0 0 0];

internalField       uniform 360;

boundaryField
{
    bottom
    {
        type            zeroGradient;
    }
    top
    {
        type            inletOutlet;
        inletValue      $internalField;
        value           $internalField;
    }
    left
    {
        type            fixedValue;
        value           $internalField;
    }
    right
    {
        type            zeroGradient;
        value           $internalField;
    }
    frontAndBack
    {
        type            empty;
    }
}

// * * * * * * * * * * * * * * * * * * * * * * * * * * * * * * * * * * * * * //
