/*--------------------------------*- C++ -*----------------------------------*\
| =========                 |                                                 |
| \\      /  F ield         | OpenFOAM: The Open Source CFD Toolbox           |
|  \\    /   O peration     | Version:  dev                                   |
|   \\  /    A nd           | Web:      www.OpenFOAM.org                      |
|    \\/     M anipulation  |                                                 |
\*---------------------------------------------------------------------------*/
FoamFile
{
    version     2.0;
    format      ascii;
    class       dictionary;
    location    "system";
    object      fvSchemes;
}
// * * * * * * * * * * * * * * * * * * * * * * * * * * * * * * * * * * * * * //

ddtSchemes
{
    default         Euler;
}

gradSchemes
{
    default         Gauss linear;
}

divSchemes
{
    default         none;

    div(alphaPhi1,U1)       Gauss limitedLinearV 1;
    div(alphaPhi2,U2)       Gauss limitedLinearV 1;
    div(phi1,U1)            Gauss limitedLinearV 1;
    div(phi2,U2)            Gauss limitedLinearV 1;
    div(alphaPhi1,h1)       Gauss limitedLinear 1;
    div(alphaPhi2,h2)       Gauss limitedLinear 1;
    div(alphaPhi2,k)        Gauss limitedLinear 1;
    div(alphaPhi2,epsilon)  Gauss limitedLinear 1;
    div(phi,alpha)          Gauss limitedLinear01 1;
    div(phir,alpha)         Gauss limitedLinear01 1;
    div(phi,Theta)          Gauss limitedLinear 1;
    div((alpha1*Rc))        Gauss linear;
    div((alpha2*Rc))        Gauss linear;
    div(phid1,p)            Gauss upwind;
    div(phid2,p)            Gauss upwind;
    div(phi1,K1)            Gauss limitedLinear 1;
    div(phi2,K2)            Gauss limitedLinear 1;
}

laplacianSchemes
{
    default          Gauss linear uncorrected;
}

interpolationSchemes
{
    default         linear;
}

snGradSchemes
{
    default         uncorrected;
}

fluxRequired
{
    default         no;
    p               ;
    alpha1          ;
}


// ************************************************************************* //
