/*--------------------------------*- C++ -*----------------------------------*\
| =========                 |                                                 |
| \\      /  F ield         | OpenFOAM: The Open Source CFD Toolbox           |
|  \\    /   O peration     | Version:  v2112                                 |
|   \\  /    A nd           | Website:  www.openfoam.com                      |
|    \\/     M anipulation  |                                                 |
\*---------------------------------------------------------------------------*/
FoamFile
{
    version     2.0;
    format      ascii;
    class       dictionary;
    object      fvSolution;
}
// * * * * * * * * * * * * * * * * * * * * * * * * * * * * * * * * * * * * * //

solvers
{
    "alpha.*"
    {
        solver          PBiCGStab;
        preconditioner  DILU;
        tolerance       1e-08;
        relTol          0.0;

        cAlphas          ((liquid and gas) 1);

        nAlphaCorr      1;
        nAlphaSubCycles 1;

        // Compressiion factor for species in each alpha phase
        // NOTE: It should be similar to cAlpha
        cYi             1;
    }

    p_rgh
    {
        solver          PCG;
        preconditioner  DIC;
        tolerance       1e-09;
        relTol          0.02;
    }

    p_rghFinal
    {
        $p_rgh;
        relTol          0;
    }

    "pcorr.*"
    {
        $p_rgh;
    }

    "U.*"
    {
        solver          smoothSolver;
        smoother        symGaussSeidel;
        tolerance       1e-06;
        relTol          0;
    }

    "Yi.*"
    {
        solver          smoothSolver;
        smoother        symGaussSeidel;
        tolerance       1e-09;
        relTol          0;
        residualAlpha   1e-6;
    }

    "T.*"
    {
        solver          PBiCGStab;
        preconditioner  DILU;
        tolerance       1e-08;
        relTol          0.01;
    }

    "mDotSmear.*"
    {
        solver          PBiCGStab;
        preconditioner  DIC;
        tolerance       1e-08;
        relTol          0.0;
    }

    "Xvapour.gas.*"
    {
        solver          PBiCGStab;
        preconditioner  DILU;
        tolerance       1e-08;
        relTol          0.0;
    }
}

PIMPLE
{
    momentumPredictor   no;
    nOuterCorrectors    1;
    nCorrectors         2;
    nNonOrthogonalCorrectors 0;
}

relaxationFactors
{
    fields
    {
    }
    equations
    {
        ".*"     1;
    }
}


// ************************************************************************* //
