/*--------------------------------*- C++ -*----------------------------------*\
| =========                 |                                                 |
| \\      /  F ield         | OpenFOAM: The Open Source CFD Toolbox           |
|  \\    /   O peration     | Version:  v2306                                 |
|   \\  /    A nd           | Website:  www.openfoam.com                      |
|    \\/     M anipulation  |                                                 |
\*---------------------------------------------------------------------------*/
FoamFile
{
    version     2.0;
    format      ascii;
    class       volVectorField;
    object      U;
}
// * * * * * * * * * * * * * * * * * * * * * * * * * * * * * * * * * * * * * //

dimensions      [0 1 -1 0 0 0 0];

internalField   uniform (0 0 0);

boundaryField
{
    inlet
    {
        type            pressureInletOutletVelocity;
        value           uniform (0 0 0);
    }

    outlet1
    {
        type            inletOutlet;
        inletValue      uniform (0 0 0);
        value           uniform (0 0 0);
    }

    outlet2
    {
        // A do-it-yourself inletOutlet (for demonstration purposes)
        // Need 'value' entry to avoid evaluation (with phi) on startup
        type            uniformMixed;
        value           uniform (0 0 0);

        uniformValue    zero;
        uniformGradient zero;

        uniformValueFraction
        {
            type        expression;
            expression  "neg(phi)";
        }
    }

    defaultFaces
    {
        type            fixedValue;
        value           uniform (0 0 0);
    }
}


// ************************************************************************* //
