/*--------------------------------*- C++ -*----------------------------------*\
| =========                 |                                                 |
| \\      /  F ield         | OpenFOAM: The Open Source CFD Toolbox           |
|  \\    /   O peration     | Version:  v2006                                 |
|   \\  /    A nd           | Web:      www.OpenFOAM.com                      |
|    \\/     M anipulation  |                                                 |
\*---------------------------------------------------------------------------*/
FoamFile
{
    version     2.0;
    format      ascii;
    class       volScalarField;
    location    "0";
    object      T;
}
// * * * * * * * * * * * * * * * * * * * * * * * * * * * * * * * * * * * * * //

dimensions      [0 0 0 1 0 0 0];

internalField   uniform 300;

boundaryField
{
    // This patch is the coupled with the ceiling in the fluid region
    bottom
    {
        type                compressible::thermalBaffle;
        kappaMethod         solidThermo;
        value               uniform 300;
    }
    side
    {
        type                zeroGradient;
    }

    // This the external patch of the solid
    top
    {
        type                fixedValue;
        value               uniform 340;
    }
}


// ************************************************************************* //
