/*--------------------------------*- C++ -*----------------------------------*\
| =========                 |                                                 |
| \\      /  F ield         | OpenFOAM: The Open Source CFD Toolbox           |
|  \\    /   O peration     | Version:  dev                                   |
|   \\  /    A nd           | Web:      www.OpenFOAM.org                      |
|    \\/     M anipulation  |                                                 |
\*---------------------------------------------------------------------------*/
FoamFile
{
    version     2.0;
    format      ascii;
    class       dictionary;
    location    "constant";
    object      transportProperties;
}
// * * * * * * * * * * * * * * * * * * * * * * * * * * * * * * * * * * * * * //

phases (water air);

water
{
    transportModel  Newtonian;
    nu              nu [ 0 2 -1 0 0 0 0 ] 1e-06;
    k               k         [1 1 -3 -1 0 0 0] 0; //0.613;
    rho             rho [ 1 -3 0 0 0 0 0 ] 1000;
    rho0            rho0 [ 1 -3 0 0 0 0 0 ] 1000;
    R               R         [0 2 -2 -1 0] 3000;
    Cv              Cv        [0 2 -2 -1 0] 4179;
}

air
{
    transportModel  Newtonian;
    nu              nu [ 0 2 -1 0 0 0 0 ] 1.589e-05;
    k               k         [1 1 -3 -1 0 0 0] 0; //2.63e-2;
    rho             rho [ 1 -3 0 0 0 0 0 ] 1;
    rho0            rho0 [ 1 -3 0 0 0 0 0 ] 0;
    R               R         [0 2 -2 -1 0] 287;
    Cv              Cv        [0 2 -2 -1 0] 721;
}

pMin            pMin [ 1 -1 -2 0 0 0 0 ] 10000;

sigma           sigma [ 1 0 -2 0 0 0 0 ] 0.07;


// ************************************************************************* //
