/*--------------------------------*- C++ -*----------------------------------*\
| =========                 |                                                 |
| \\      /  F ield         | OpenFOAM: The Open Source CFD Toolbox           |
|  \\    /   O peration     | Version:  v2112                                 |
|   \\  /    A nd           | Website:  www.openfoam.com                      |
|    \\/     M anipulation  |                                                 |
\*---------------------------------------------------------------------------*/
FoamFile
{
    version     2.0;
    format      ascii;
    class       dictionary;
    object      sample;
}
// * * * * * * * * * * * * * * * * * * * * * * * * * * * * * * * * * * * * * //

type            sets;
libs            (sampling);
interpolationScheme cellPointFace;
setFormat       raw;
fields          ( p wallHeatTransRate );

sets
(
    cone25
    {
        type    face;
        axis    x;
        start   (0 0 0);
        end     (0.09208087 0.042939 0);
        nPoints 92;
    }
    cone55
    {
        type    face;
        axis    x;
        start   (0.09208087 0.042939 0);
        end     (0.153683 0.13092 0);
        nPoints 61;
    }
    base
    {
        type    face;
        axis    x;
        start   (0.153683 0.13092 0);
        end     (0.193675 0.13092 0);
        nPoints 40;
    }
);


// ************************************************************************* //
