/*--------------------------------*- C++ -*----------------------------------*\
| =========                 |                                                 |
| \\      /  F ield         | OpenFOAM: The Open Source CFD Toolbox           |
|  \\    /   O peration     | Version:  v2112                                 |
|   \\  /    A nd           | Website:  www.openfoam.com                      |
|    \\/     M anipulation  |                                                 |
\*---------------------------------------------------------------------------*/
FoamFile
{
    version     2.0;
    format      ascii;
    class       dictionary;
    location    "../constant/controlPoints";
    object      boxcpsBsplines0;
}
// * * * * * * * * * * * * * * * * * * * * * * * * * * * * * * * * * * * * * //

controlPoints   343 ( ( -0.0997846 -0.425087 0.63635 ) ( -0.0161812 -0.425087 0.706501 ) ( 0.0674222 -0.425087 0.776653 ) ( 0.151026 -0.425087 0.846804 ) ( 0.234629 -0.425087 0.916956 ) ( 0.318233 -0.425087 0.987108 ) ( 0.401836 -0.425087 1.05726 ) ( -0.0997846 -0.287028 0.63635 ) ( -0.0161812 -0.287028 0.706501 ) ( 0.0674222 -0.287028 0.776653 ) ( 0.151026 -0.287028 0.846804 ) ( 0.234629 -0.287028 0.916956 ) ( 0.318233 -0.287028 0.987108 ) ( 0.401836 -0.287028 1.05726 ) ( -0.0997846 -0.14897 0.63635 ) ( -0.0161812 -0.14897 0.706501 ) ( 0.0674222 -0.14897 0.776653 ) ( 0.151026 -0.14897 0.846804 ) ( 0.234629 -0.14897 0.916956 ) ( 0.318233 -0.14897 0.987108 ) ( 0.401836 -0.14897 1.05726 ) ( -0.0997846 -0.0109117 0.63635 ) ( -0.0161812 -0.0109117 0.706501 ) ( 0.0674222 -0.0109117 0.776653 ) ( 0.151026 -0.0109117 0.846804 ) ( 0.234629 -0.0109117 0.916956 ) ( 0.318233 -0.0109117 0.987108 ) ( 0.401836 -0.0109117 1.05726 ) ( -0.0997846 0.127147 0.63635 ) ( -0.0161812 0.127147 0.706501 ) ( 0.0674222 0.127147 0.776653 ) ( 0.151026 0.127147 0.846804 ) ( 0.234629 0.127147 0.916956 ) ( 0.318233 0.127147 0.987108 ) ( 0.401836 0.127147 1.05726 ) ( -0.0997846 0.265205 0.63635 ) ( -0.0161812 0.265205 0.706501 ) ( 0.0674222 0.265205 0.776653 ) ( 0.151026 0.265205 0.846804 ) ( 0.234629 0.265205 0.916956 ) ( 0.318233 0.265205 0.987108 ) ( 0.401836 0.265205 1.05726 ) ( -0.0997846 0.403263 0.63635 ) ( -0.0161812 0.403263 0.706501 ) ( 0.0674222 0.403263 0.776653 ) ( 0.151026 0.403263 0.846804 ) ( 0.234629 0.403263 0.916956 ) ( 0.318233 0.403263 0.987108 ) ( 0.401836 0.403263 1.05726 ) ( -0.135795 -0.425087 0.679266 ) ( -0.0521919 -0.425087 0.749417 ) ( 0.0314115 -0.425087 0.819569 ) ( 0.115015 -0.425087 0.88972 ) ( 0.198618 -0.425087 0.959872 ) ( 0.282222 -0.425087 1.03002 ) ( 0.365825 -0.425087 1.10018 ) ( -0.135795 -0.287028 0.679266 ) ( -0.0521919 -0.287028 0.749417 ) ( 0.0314115 -0.287028 0.819569 ) ( 0.115015 -0.287028 0.88972 ) ( 0.198618 -0.287028 0.959872 ) ( 0.282222 -0.287028 1.03002 ) ( 0.365825 -0.287028 1.10018 ) ( -0.135795 -0.14897 0.679266 ) ( -0.0521919 -0.14897 0.749417 ) ( 0.0314115 -0.14897 0.819569 ) ( 0.115015 -0.14897 0.88972 ) ( 0.198618 -0.14897 0.959872 ) ( 0.282222 -0.14897 1.03002 ) ( 0.365825 -0.14897 1.10018 ) ( -0.135795 -0.0109117 0.679266 ) ( -0.0521919 -0.0109117 0.749417 ) ( 0.0314115 -0.0109117 0.819569 ) ( 0.115015 -0.0109117 0.88972 ) ( 0.198618 -0.0109117 0.959872 ) ( 0.282222 -0.0109117 1.03002 ) ( 0.365825 -0.0109117 1.10018 ) ( -0.135795 0.127147 0.679266 ) ( -0.0521919 0.127147 0.749417 ) ( 0.0314115 0.127147 0.819569 ) ( 0.115015 0.127147 0.88972 ) ( 0.198618 0.127147 0.959872 ) ( 0.282222 0.127147 1.03002 ) ( 0.365825 0.127147 1.10018 ) ( -0.135795 0.265205 0.679266 ) ( -0.0521919 0.265205 0.749417 ) ( 0.0314115 0.265205 0.819569 ) ( 0.115015 0.265205 0.88972 ) ( 0.198618 0.265205 0.959872 ) ( 0.282222 0.265205 1.03002 ) ( 0.365825 0.265205 1.10018 ) ( -0.135795 0.403263 0.679266 ) ( -0.0521919 0.403263 0.749417 ) ( 0.0314115 0.403263 0.819569 ) ( 0.115015 0.403263 0.88972 ) ( 0.198618 0.403263 0.959872 ) ( 0.282222 0.403263 1.03002 ) ( 0.365825 0.403263 1.10018 ) ( -0.171806 -0.425087 0.722181 ) ( -0.0882027 -0.425087 0.792333 ) ( -0.00459927 -0.425087 0.862485 ) ( 0.0790042 -0.425087 0.932636 ) ( 0.162608 -0.425087 1.00279 ) ( 0.246211 -0.425087 1.07294 ) ( 0.329814 -0.425087 1.14309 ) ( -0.171806 -0.287028 0.722181 ) ( -0.0882027 -0.287028 0.792333 ) ( -0.00459927 -0.287028 0.862485 ) ( 0.0790042 -0.287028 0.932636 ) ( 0.162608 -0.287028 1.00279 ) ( 0.246211 -0.287028 1.07294 ) ( 0.329814 -0.287028 1.14309 ) ( -0.171806 -0.14897 0.722181 ) ( -0.0882027 -0.14897 0.792333 ) ( -0.00459927 -0.14897 0.862485 ) ( 0.0790042 -0.14897 0.932636 ) ( 0.162608 -0.14897 1.00279 ) ( 0.246211 -0.14897 1.07294 ) ( 0.329814 -0.14897 1.14309 ) ( -0.171806 -0.0109117 0.722181 ) ( -0.0882027 -0.0109117 0.792333 ) ( -0.00459927 -0.0109117 0.862485 ) ( 0.0790042 -0.0109117 0.932636 ) ( 0.162608 -0.0109117 1.00279 ) ( 0.246211 -0.0109117 1.07294 ) ( 0.329814 -0.0109117 1.14309 ) ( -0.171806 0.127147 0.722181 ) ( -0.0882027 0.127147 0.792333 ) ( -0.00459927 0.127147 0.862485 ) ( 0.0790042 0.127147 0.932636 ) ( 0.162608 0.127147 1.00279 ) ( 0.246211 0.127147 1.07294 ) ( 0.329814 0.127147 1.14309 ) ( -0.171806 0.265205 0.722181 ) ( -0.0882027 0.265205 0.792333 ) ( -0.00459927 0.265205 0.862485 ) ( 0.0790042 0.265205 0.932636 ) ( 0.162608 0.265205 1.00279 ) ( 0.246211 0.265205 1.07294 ) ( 0.329814 0.265205 1.14309 ) ( -0.171806 0.403263 0.722181 ) ( -0.0882027 0.403263 0.792333 ) ( -0.00459927 0.403263 0.862485 ) ( 0.0790042 0.403263 0.932636 ) ( 0.162608 0.403263 1.00279 ) ( 0.246211 0.403263 1.07294 ) ( 0.329814 0.403263 1.14309 ) ( -0.207817 -0.425087 0.765097 ) ( -0.124213 -0.425087 0.835249 ) ( -0.04061 -0.425087 0.905401 ) ( 0.0429934 -0.425087 0.975552 ) ( 0.126597 -0.425087 1.0457 ) ( 0.2102 -0.425087 1.11586 ) ( 0.293804 -0.425087 1.18601 ) ( -0.207817 -0.287028 0.765097 ) ( -0.124213 -0.287028 0.835249 ) ( -0.04061 -0.287028 0.905401 ) ( 0.0429934 -0.287028 0.975552 ) ( 0.126597 -0.287028 1.0457 ) ( 0.2102 -0.287028 1.11586 ) ( 0.293804 -0.287028 1.18601 ) ( -0.207817 -0.14897 0.765097 ) ( -0.124213 -0.14897 0.835249 ) ( -0.04061 -0.14897 0.905401 ) ( 0.0429934 -0.14897 0.975552 ) ( 0.126597 -0.14897 1.0457 ) ( 0.2102 -0.14897 1.11586 ) ( 0.293804 -0.14897 1.18601 ) ( -0.207817 -0.0109117 0.765097 ) ( -0.124213 -0.0109117 0.835249 ) ( -0.04061 -0.0109117 0.905401 ) ( 0.0429934 -0.0109117 0.975552 ) ( 0.126597 -0.0109117 1.0457 ) ( 0.2102 -0.0109117 1.11586 ) ( 0.293804 -0.0109117 1.18601 ) ( -0.207817 0.127147 0.765097 ) ( -0.124213 0.127147 0.835249 ) ( -0.04061 0.127147 0.905401 ) ( 0.0429934 0.127147 0.975552 ) ( 0.126597 0.127147 1.0457 ) ( 0.2102 0.127147 1.11586 ) ( 0.293804 0.127147 1.18601 ) ( -0.207817 0.265205 0.765097 ) ( -0.124213 0.265205 0.835249 ) ( -0.04061 0.265205 0.905401 ) ( 0.0429934 0.265205 0.975552 ) ( 0.126597 0.265205 1.0457 ) ( 0.2102 0.265205 1.11586 ) ( 0.293804 0.265205 1.18601 ) ( -0.207817 0.403263 0.765097 ) ( -0.124213 0.403263 0.835249 ) ( -0.04061 0.403263 0.905401 ) ( 0.0429934 0.403263 0.975552 ) ( 0.126597 0.403263 1.0457 ) ( 0.2102 0.403263 1.11586 ) ( 0.293804 0.403263 1.18601 ) ( -0.243828 -0.425087 0.808013 ) ( -0.160224 -0.425087 0.878165 ) ( -0.0766208 -0.425087 0.948317 ) ( 0.00698265 -0.425087 1.01847 ) ( 0.0905861 -0.425087 1.08862 ) ( 0.174189 -0.425087 1.15877 ) ( 0.257793 -0.425087 1.22892 ) ( -0.243828 -0.287028 0.808013 ) ( -0.160224 -0.287028 0.878165 ) ( -0.0766208 -0.287028 0.948317 ) ( 0.00698265 -0.287028 1.01847 ) ( 0.0905861 -0.287028 1.08862 ) ( 0.174189 -0.287028 1.15877 ) ( 0.257793 -0.287028 1.22892 ) ( -0.243828 -0.14897 0.808013 ) ( -0.160224 -0.14897 0.878165 ) ( -0.0766208 -0.14897 0.948317 ) ( 0.00698265 -0.14897 1.01847 ) ( 0.0905861 -0.14897 1.08862 ) ( 0.174189 -0.14897 1.15877 ) ( 0.257793 -0.14897 1.22892 ) ( -0.243828 -0.0109117 0.808013 ) ( -0.160224 -0.0109117 0.878165 ) ( -0.0766208 -0.0109117 0.948317 ) ( 0.00698265 -0.0109117 1.01847 ) ( 0.0905861 -0.0109117 1.08862 ) ( 0.174189 -0.0109117 1.15877 ) ( 0.257793 -0.0109117 1.22892 ) ( -0.243828 0.127147 0.808013 ) ( -0.160224 0.127147 0.878165 ) ( -0.0766208 0.127147 0.948317 ) ( 0.00698265 0.127147 1.01847 ) ( 0.0905861 0.127147 1.08862 ) ( 0.174189 0.127147 1.15877 ) ( 0.257793 0.127147 1.22892 ) ( -0.243828 0.265205 0.808013 ) ( -0.160224 0.265205 0.878165 ) ( -0.0766208 0.265205 0.948317 ) ( 0.00698265 0.265205 1.01847 ) ( 0.0905861 0.265205 1.08862 ) ( 0.174189 0.265205 1.15877 ) ( 0.257793 0.265205 1.22892 ) ( -0.243828 0.403263 0.808013 ) ( -0.160224 0.403263 0.878165 ) ( -0.0766208 0.403263 0.948317 ) ( 0.00698265 0.403263 1.01847 ) ( 0.0905861 0.403263 1.08862 ) ( 0.174189 0.403263 1.15877 ) ( 0.257793 0.403263 1.22892 ) ( -0.279838 -0.425087 0.850929 ) ( -0.196235 -0.425087 0.921081 ) ( -0.112632 -0.425087 0.991233 ) ( -0.0290281 -0.425087 1.06138 ) ( 0.0545753 -0.425087 1.13154 ) ( 0.138179 -0.425087 1.20169 ) ( 0.221782 -0.425087 1.27184 ) ( -0.279838 -0.287028 0.850929 ) ( -0.196235 -0.287028 0.921081 ) ( -0.112632 -0.287028 0.991233 ) ( -0.0290281 -0.287028 1.06138 ) ( 0.0545753 -0.287028 1.13154 ) ( 0.138179 -0.287028 1.20169 ) ( 0.221782 -0.287028 1.27184 ) ( -0.279838 -0.14897 0.850929 ) ( -0.196235 -0.14897 0.921081 ) ( -0.112632 -0.14897 0.991233 ) ( -0.0290281 -0.14897 1.06138 ) ( 0.0545753 -0.14897 1.13154 ) ( 0.138179 -0.14897 1.20169 ) ( 0.221782 -0.14897 1.27184 ) ( -0.279838 -0.0109117 0.850929 ) ( -0.196235 -0.0109117 0.921081 ) ( -0.112632 -0.0109117 0.991233 ) ( -0.0290281 -0.0109117 1.06138 ) ( 0.0545753 -0.0109117 1.13154 ) ( 0.138179 -0.0109117 1.20169 ) ( 0.221782 -0.0109117 1.27184 ) ( -0.279838 0.127147 0.850929 ) ( -0.196235 0.127147 0.921081 ) ( -0.112632 0.127147 0.991233 ) ( -0.0290281 0.127147 1.06138 ) ( 0.0545753 0.127147 1.13154 ) ( 0.138179 0.127147 1.20169 ) ( 0.221782 0.127147 1.27184 ) ( -0.279838 0.265205 0.850929 ) ( -0.196235 0.265205 0.921081 ) ( -0.112632 0.265205 0.991233 ) ( -0.0290281 0.265205 1.06138 ) ( 0.0545753 0.265205 1.13154 ) ( 0.138179 0.265205 1.20169 ) ( 0.221782 0.265205 1.27184 ) ( -0.279838 0.403263 0.850929 ) ( -0.196235 0.403263 0.921081 ) ( -0.112632 0.403263 0.991233 ) ( -0.0290281 0.403263 1.06138 ) ( 0.0545753 0.403263 1.13154 ) ( 0.138179 0.403263 1.20169 ) ( 0.221782 0.403263 1.27184 ) ( -0.315849 -0.425087 0.893845 ) ( -0.232246 -0.425087 0.963997 ) ( -0.148642 -0.425087 1.03415 ) ( -0.0650389 -0.425087 1.1043 ) ( 0.0185646 -0.425087 1.17445 ) ( 0.102168 -0.425087 1.2446 ) ( 0.185771 -0.425087 1.31475 ) ( -0.315849 -0.287028 0.893845 ) ( -0.232246 -0.287028 0.963997 ) ( -0.148642 -0.287028 1.03415 ) ( -0.0650389 -0.287028 1.1043 ) ( 0.0185646 -0.287028 1.17445 ) ( 0.102168 -0.287028 1.2446 ) ( 0.185771 -0.287028 1.31475 ) ( -0.315849 -0.14897 0.893845 ) ( -0.232246 -0.14897 0.963997 ) ( -0.148642 -0.14897 1.03415 ) ( -0.0650389 -0.14897 1.1043 ) ( 0.0185646 -0.14897 1.17445 ) ( 0.102168 -0.14897 1.2446 ) ( 0.185771 -0.14897 1.31475 ) ( -0.315849 -0.0109117 0.893845 ) ( -0.232246 -0.0109117 0.963997 ) ( -0.148642 -0.0109117 1.03415 ) ( -0.0650389 -0.0109117 1.1043 ) ( 0.0185646 -0.0109117 1.17445 ) ( 0.102168 -0.0109117 1.2446 ) ( 0.185771 -0.0109117 1.31475 ) ( -0.315849 0.127147 0.893845 ) ( -0.232246 0.127147 0.963997 ) ( -0.148642 0.127147 1.03415 ) ( -0.0650389 0.127147 1.1043 ) ( 0.0185646 0.127147 1.17445 ) ( 0.102168 0.127147 1.2446 ) ( 0.185771 0.127147 1.31475 ) ( -0.315849 0.265205 0.893845 ) ( -0.232246 0.265205 0.963997 ) ( -0.148642 0.265205 1.03415 ) ( -0.0650389 0.265205 1.1043 ) ( 0.0185646 0.265205 1.17445 ) ( 0.102168 0.265205 1.2446 ) ( 0.185771 0.265205 1.31475 ) ( -0.315849 0.403263 0.893845 ) ( -0.232246 0.403263 0.963997 ) ( -0.148642 0.403263 1.03415 ) ( -0.0650389 0.403263 1.1043 ) ( 0.0185646 0.403263 1.17445 ) ( 0.102168 0.403263 1.2446 ) ( 0.185771 0.403263 1.31475 ) );


// ************************************************************************* //
