/*--------------------------------*- C++ -*----------------------------------*\
| =========                 |                                                 |
| \\      /  F ield         | OpenFOAM: The Open Source CFD Toolbox           |
|  \\    /   O peration     | Version:  v1806                                 |
|   \\  /    A nd           | Web:      www.OpenFOAM.com                      |
|    \\/     M anipulation  |                                                 |
\*---------------------------------------------------------------------------*/
FoamFile
{
    version         2.0;
    format          ascii;
    class           dictionary;
    object          blockMeshDict;
}
// * * * * * * * * * * * * * * * * * * * * * * * * * * * * * * * * * * * * * //

scale   1;

vertices
(
    ( 0.0 0.0 0.0)
    ( 30.0 0.0 0.0)
    ( 30.0 0.04 0.0)
    ( 0.0 0.04 0.0)
    ( 0.0 0.0 0.7)
    ( 30.0 0.0 0.7)
    ( 30.0 0.04 0.7)
    ( 0.0 0.04 0.7)
);

blocks
(
    hex (0 1 2 3 4 5 6 7) (750 1 70) simpleGrading (1 1 1)
);

edges
(
);

boundary
(
    inlet
    {
        type patch;
        faces
        (
            (0 4 7 3)
        );
    }
    outlet
    {
        type patch;
        faces
        (
            (1 5 6 2)
        );
    }
    ground
    {
        type wall;
        faces
        (
            (0 1 2 3)
        );
    }
    top
    {
        type patch;
        faces
        (
            (4 5 6 7)
        );
    }
    sides
    {
        type empty;
        faces
        (
            (0 1 5 4)
            (3 2 6 7)
        );
    }
);

mergePatchPairs
(
);

// ************************************************************************* //

