/*--------------------------------*- C++ -*----------------------------------*\
| =========                 |                                                 |
| \\      /  F ield         | OpenFOAM: The Open Source CFD Toolbox           |
|  \\    /   O peration     | Version:  dev                                   |
|   \\  /    A nd           | Web:      http://www.openfoam.org               |
|    \\/     M anipulation  |                                                 |
\*---------------------------------------------------------------------------*/

FoamFile
{
    version         2.0;
    format          ascii;

    root            "";
    case            "";
    instance        "";
    local           "";

    class           dictionary;
    object          collapseDict;
}

// * * * * * * * * * * * * * * * * * * * * * * * * * * * * * * * * * * * * * //

collapseEdgesCoeffs
{
    minimumEdgeLength   1e-4;
    maximumMergeAngle   180;
    reductionFactor     0.5;
}


collapseFacesCoeffs
{
    initialFaceLengthFactor                 0.5;
    reductionFactor                         0.5;

    allowEarlyCollapseToPoint               on;
    allowEarlyCollapseCoeff                 0.2;
    guardFraction                           0.1;
    maxCollapseFaceToPointSideLengthCoeff   0.3;
}


meshQualityCoeffs
{
    #include                    "meshQualityDict";
    maximumIterations           30;
    maximumSmoothingIterations  1;
    maxPointErrorCount          5;
}


// ************************************************************************* //
