/*--------------------------------*- C++ -*----------------------------------*\
| =========                 |                                                 |
| \\      /  F ield         | OpenFOAM: The Open Source CFD Toolbox           |
|  \\    /   O peration     | Version:  dev                                   |
|   \\  /    A nd           | Web:      www.OpenFOAM.org                      |
|    \\/     M anipulation  |                                                 |
\*---------------------------------------------------------------------------*/
FoamFile
{
    version     2.0;
    format      ascii;
    class       dictionary;
    object      thermophysicalProperties;
}
// * * * * * * * * * * * * * * * * * * * * * * * * * * * * * * * * * * * * * //

thermoType
{
    type            heSolidThermo;
    mixture         reactingSolidMixture;
    transport       constIso;
    thermo          hConst;
    equationOfState rhoConst;
    specie          specie;
    energy          sensibleEnthalpy;
}

gasThermoType
{
    transport       sutherland;
    thermo          janaf;
    equationOfState perfectGas;
    specie          specie;
    energy          sensibleEnthalpy;
}

solidComponents
(
    v char
);

gaseousSpecies
(
    gas
);

vCoeffs
{
    specie
    {
        nMoles      1;
        molWeight   100;
    }
    transport
    {
        kappa       0.135;
    }
    thermodynamics
    {
        Cp          696;
        Hf          -1.41e6;
    }
    equationOfState
    {
        rho         114.7;
    }
};

charCoeffs
{
    specie
    {
        nMoles      1;
        molWeight   50;
    }
    transport
    {
        kappa       0.4;
    }
    thermodynamics
    {
        Cp          611;
        Hf          0;
    }
    equationOfState
    {
        rho         11.5;
    }
};

gasCoeffs
{
    specie
    {
        nMoles          1;
        molWeight       18.0153;
    }
    thermodynamics
    {
        Tlow            200;
        Thigh           5000;
        Tcommon         1000;
        highCpCoeffs    ( 2.67215 0.00305629 -8.73026e-07 1.20100e-10 -6.39162e-15 -29899.2 6.86282 );
        lowCpCoeffs     ( 3.38684 0.00347498 -6.35470e-06 6.96858e-09 -2.50659e-12 -30208.1 2.59023 );
    }
    transport
    {
        As              1.67212e-06;
        Ts              170.672;
    }
}


// ************************************************************************* //
