/*--------------------------------*- C++ -*----------------------------------*\
| =========                 |                                                 |
| \\      /  F ield         | OpenFOAM: The Open Source CFD Toolbox           |
|  \\    /   O peration     | Version:  v2112                                 |
|   \\  /    A nd           | Website:  www.openfoam.com                      |
|    \\/     M anipulation  |                                                 |
\*---------------------------------------------------------------------------*/
FoamFile
{
    version     2.0;
    format      ascii;
    class       dictionary;
    object      moleculeProperties;
}
// * * * * * * * * * * * * * * * * * * * * * * * * * * * * * * * * * * * * * //

Ar
{
    siteIds                     (Ar);
    pairPotentialSiteIds        (Ar);
    siteReferencePositions
    (
        (0 0 0)
    );
    siteMasses
    (
        6.63352033e-26
    );
    siteCharges
    (
        0
    );
}


// ************************************************************************* //
