/*--------------------------------*- C++ -*----------------------------------*\
| =========                 |                                                 |
| \\      /  F ield         | OpenFOAM: The Open Source CFD Toolbox           |
|  \\    /   O peration     | Version:  dev                                   |
|   \\  /    A nd           | Web:      www.OpenFOAM.com                      |
|    \\/     M anipulation  |                                                 |
\*---------------------------------------------------------------------------*/
FoamFile
{
    version     2.0;
    format      ascii;
    class       dictionary;
    object      thermophysicalProperties;
}
// * * * * * * * * * * * * * * * * * * * * * * * * * * * * * * * * * * * * * //

thermoType
hRhoThermo<pureMixture<constTransport<specieThermo<hConstThermo<incompressible>>>>>;

mixture
{
    nMoles          1;
    molWeight       18;
    rho             1000;
    Cp              4181;
    Hf              0;
    mu              959e-6;
    Pr              6.62;
}

// ************************************************************************* //
