/*--------------------------------*- C++ -*----------------------------------*\
| =========                 |                                                 |
| \\      /  F ield         | OpenFOAM: The Open Source CFD Toolbox           |
|  \\    /   O peration     | Version:  2.2.0                                 |
|   \\  /    A nd           | Web:      www.OpenFOAM.org                      |
|    \\/     M anipulation  |                                                 |
\*---------------------------------------------------------------------------*/
FoamFile
{
    version     2.0;
    format      ascii;
    class       dictionary;
    location    "templates";
    object      outlet;
}
// * * * * * * * * * * * * * * * * * * * * * * * * * * * * * * * * * * * * * //

subSonic
{
    T
    {
        type        inletOutlet;
        inletValue  ${:VALUE.T};
        value       ${:VALUE.T};
    }
    p
    {
        type        calculated;
        value       ${:VALUE.p};
    }
    p_rgh
    {
        type        fixedValue;
        value       ${:VALUE.p_rgh};
    }
    mut
    {
        type        zeroGradient;
    }
    alphat
    {
        type        zeroGradient;
    }
}


// ************************************************************************* //
