/*--------------------------------*- C++ -*----------------------------------*\
| =========                 |                                                 |
| \\      /  F ield         | OpenFOAM: The Open Source CFD Toolbox           |
|  \\    /   O peration     | Version:  dev                                   |
|   \\  /    A nd           | Web:      http://www.openfoam.org               |
|    \\/     M anipulation  |                                                 |
\*---------------------------------------------------------------------------*/

// Foam Dictionary.

FoamFile
{
    version         2.0;
    format          ascii;

    root            "";
    case            "";
    instance        "";
    local           "";
    class           dictionary;
    object          controlDict;
}

// * * * * * * * * * * * * * * * * * * * * * * * * * * * * * * * * * * * * * //

hosts
(
);

caseRoots
(
    "."
    "$FOAM_RUN/tutorials/bubbleFoam"
    "$FOAM_RUN/tutorials/buoyantFoam"
    "$FOAM_RUN/tutorials/buoyantSimpleFoam"
    "$FOAM_RUN/tutorials/channelOodles"
    "$FOAM_RUN/tutorials/coodles"
    "$FOAM_RUN/tutorials/dnsFoam"
    "$FOAM_RUN/tutorials/electrostaticFoam"
    "$FOAM_RUN/tutorials/engineFoam"
    "$FOAM_RUN/tutorials/icoFoam"
    "$FOAM_RUN/tutorials/interFoam"
    "$FOAM_RUN/tutorials/laplacianFoam"
    "$FOAM_RUN/tutorials/lesInterFoam"
    "$FOAM_RUN/tutorials/mhdFoam"
    "$FOAM_RUN/tutorials/oodles"
    "$FOAM_RUN/tutorials/potentialFoam"
    "$FOAM_RUN/tutorials/rasInterFoam"
    "$FOAM_RUN/tutorials/rhoSonicFoam"
    "$FOAM_RUN/tutorials/rhoTurbFoam"
    "$FOAM_RUN/tutorials/scalarTransportFoam"
    "$FOAM_RUN/tutorials/settlingFoam"
    "$FOAM_RUN/tutorials/simpleFoam"
    "$FOAM_RUN/tutorials/solidDisplacementFoam"
    "$FOAM_RUN/tutorials/sonicFoam"
    "$FOAM_RUN/tutorials/sonicLiquidFoam"
    "$FOAM_RUN/tutorials/sonicTurbFoam"
    "$FOAM_RUN/tutorials/turbFoam"
    "$FOAM_RUN/tutorials/twoPhaseEulerFoam"
    "$FOAM_RUN/tutorials/XiFoam"
    "$FOAM_RUN/tutorials/Xoodles"
);

Documentation
{
    docBrowser        "kde-open %f";
    doxyDocDirs
    (
        "$WM_PROJECT_USER_DIR/Doxygen/html"
        "~OpenFOAM/Doxygen/html"
        "$WM_PROJECT_DIR/doc/Doxygen/html"
    );
    doxySourceFileExt "_8C.html";
}

DebugSwitches
{
    APIdiffCoefFunc
    Ar
    BICCG
    BirdCarreau
    C10H22
    C12H26
    C13H28
    C14H30
    C16H34
    C2H5OH
    C2H6
    C2H6O
    C3H6O
    C3H8
    C4H10O
    C6H14
    C6H6
    C7H16
    C7H8
    C8H10
    C8H18
    C9H20
    CH3OH
    CallbackRegistry
    CarnahanStarling
    ChomiakInjector
    Cloud<indexedParticle>
    Cloud<kinematicParcel>
    Cloud<parcel>
    Cloud<passiveParticle>
    Cloud<reactingParcel>
    Cloud<thermoParcel>
    Cloud<trackedParticle>
    CoEuler
    CompositionModel
    ConstantRateDevolatilisation
    CrankNicholson
    CrossPowerLaw
    Cs
    DIC
    DICGaussSeidel
    DILU
    DILUGaussSeidel
    DeardorffDiffStress
    DispersionModel
    DispersionRASModel
    DragModel
    ETAB
    Ergun
    Euler
    EulerImplicit
    EulerRotation
    FDIC
    FaceCellWave
    GAMG
    GAMGAgglomeration
    GAMGInterface
    GAMGInterfaceField
    Gamma
    Gamma01
    GammaV
    Gauss
    GaussSeidel
    Gibilaro
    Gidaspow
    GidaspowErgunWenYu
    GidaspowSchillerNaumann
    GradientDispersionRAS
    Gulders
    GuldersEGR
    H2O
    HashTable
    HeatTransferModel
    HrenyaSinclair
    IC8H18
    ICCG
    IDEA
    IFstream
    IOPtrList<MRFZone>
    IOPtrList<coordinateSystem>
    IOPtrList<injector>
    IOPtrList<porousZone>
    IOobject
    InjectionModel
    JohnsonJackson
    KRR4
    KinematicCloud<kinematicParcel>
    KinematicCloud<reactingParcel>
    KinematicCloud<thermoParcel>
    KinematicParcel<reactingParcel>
    KinematicParcel<thermoParcel>
    LESdelta
    LESfilter
    LESmodel
    LISA
    LRR
    LRRDiffStress
    LamBremhorstKE
    LaunderGibsonRSTM
    LaunderSharmaKE
    LduMatrix
    LienCubicKE
    LienCubicKELowRe
    LienLeschzinerLowRe
    List<bool>
    List<complex>
    List<complexVector>
    List<edge>
    List<label>
    List<scalar>
    List<sphericalTensor>
    List<symmTensor>
    List<tensor>
    List<vector>
    Lun
    LunSavage
    MB
    MC
    MCV
    MUSCL
    MUSCL01
    MUSCLV
    ManualInjection
    MarshakRadiation
    MarshakRadiationFixedT
    MassTransferModel
    MeshWave
    Minmod
    MinmodV
    N2
    NSRDSfunc0
    NSRDSfunc1
    NSRDSfunc14
    NSRDSfunc2
    NSRDSfunc3
    NSRDSfunc4
    NSRDSfunc5
    NSRDSfunc6
    NSRDSfunc7
    Newtonian
    NoDispersion
    NoDrag
    NoHeatTransfer
    NoInjection
    NoMassTransfer
    NoSurfaceReaction
    NonlinearKEShih
    ODE
    ODESolver
    OFstream
    ORourke
    OSPRE
    OSPREV
    P1
    PBiCG
    PCG
    PackedList
    ParSortableList
    PatchToPatchInterpolation
    Phi
    PointEdgeWave
    Prandtl
    PrimitivePatch
    Pstream
    QUICK
    QUICKV
    QZeta
    RK
    RNGkEpsilon
    RanzMarshall
    ReactingCloud<reactingParcel>
    ReactingParcel<reactingParcel>
    Rebound
    ReitzDiwakar
    ReitzKHRT
    RosinRammler
    RutlandFlashBoil
    SDA
    SFCD
    SFCDV
    SHF
    SIBS
    SKA
    SLTS
    STARCDRotation
    Schaeffer
    SchillerNaumann
    SinclairJackson
    SingleKineticRateDevolatilisation
    SingleMixtureFraction
    Smagorinsky
    SmoothSolver
    SpalartAllmaras
    SphereDrag
    StandardWallInteraction
    StaticHashTable
    StochasticDispersionRAS
    SuperBee
    SuperBeeV
    SurfaceReactionModel
    Syamlal
    SyamlalOBrien
    SyamlalRogersOBrien
    TAB
    ThermoCloud<reactingParcel>
    ThermoCloud<thermoParcel>
    ThermoParcel<reactingParcel>
    ThermoParcel<thermoParcel>
    UMIST
    UMISTV
    Unix
    WallInteractionModel
    WenYu
    aC11H10
    absorptionEmissionModel
    addCell
    addFace
    addPatchCellLayer
    addPoint
    advective
    algebraicPair
    angularOscillatingDisplacement
    angularOscillatingVelocity
    anisotropic
    ash
    atomizationModel
    attachDetach
    autoHexMeshDriver
    bC11H10
    backward
    basePatch
    basicKinematicCloud
    basicMixture
    basicReactingCloud
    basicThermo
    basicThermoCloud
    binaryAbsorptionEmission
    blended
    blobsSheetAtomization
    blobsSwirlInjector
    booleanSurface
    boundaryCutter
    boundaryMesh
    boundaryToFace
    boundedBackward
    boxToCell
    boxToFace
    boxToPoint
    breakupModel
    calculated
    cartesian
    cell
    cellClassification
    cellCuts
    cellDistFuncs
    cellLimited
    cellList
    cellLooper
    cellMDLimited
    cellMotion
    cellPoint
    cellPointFace
    cellPointWeight
    cellSet
    cellToCell
    cellToFace
    cellToPoint
    cellZone
    chemistryReader
    chemistrySolver
    chemkinReader
    clippedLinear
    cloud
    cloudAbsorptionEmission
    cloudScatter
    collisionModel
    combineFaces
    commSchedule
    commonRailInjector
    compound
    conductivityModel
    constInjector
    constant
    constantAbsorptionEmission
    constantGammaContactAngle
    constantScatter
    coordinateRotation
    coordinateSystem
    corrected
    coupled
    cubeRootVol
    cubic
    curve
    cyclic
    cyclicLduInterface
    cyclicLduInterfaceField
    cylindrical
    dataSchedule
    decompositionMethod
    definedHollowConeInjector
    definedInjector
    definedPressureSwirlInjector
    diagTensorField
    diagonal
    dictionary
    dimensionSet
    directMapped
    directMappedPatch
    directionMixed
    directional
    disallowDefaultFvsPatchField
    disallowGenericFvPatchField
    disallowGenericPointPatchField
    disallowGenericPolyPatch
    dispersionLESModel
    dispersionModel
    dispersionRASModel
    displacementComponentLaplacian
    displacementInterpolation
    displacementLaplacian
    displacementSBRStress
    downwind
    dragModel
    duplicatePoints
    dx
    dynMixedSmagorinsky
    dynOneEqEddy
    dynSmagorinsky
    dynamicFvMesh
    dynamicGammaContactAngle
    dynamicInkJetFvMesh
    dynamicMotionSolverFvMesh
    dynamicRefineFvMesh
    edgeIntersections
    edgeList
    edgeSurface
    empty
    engineMesh
    enrichedPatch
    errorDrivenRefinement
    evaporationModel
    exponential
    extendedLeastSquares
    extendedLeastSquaresVectors
    face
    faceAreaPair
    faceCoupleInfo
    faceLimited
    faceList
    faceMDLimited
    faceSet
    faceToCell
    faceToFace
    faceToPoint
    faceZone
    fan
    featureEdgeMesh
    fieldToCell
    file
    fileName
    filteredLinear
    filteredLinear2
    filteredLinear2V
    fixedEnthalpy
    fixedFluxBuoyantPressure
    fixedFluxPressure
    fixedGradient
    fixedNormalSlip
    fixedUnburntEnthalpy
    fixedValue
    fluxCorrectedVelocity
    foamChemistryReader
    foamFile
    forceCoeffs
    forces
    fourth
    freestream
    freestreamPressure
    frictionalStressModel
    functionObject
    fv
    fvMesh
    fvMeshDistribute
    fvMotionSolver
    fvPatchField
    fvScalarMatrix
    fvSchemes
    fvSphericalTensorMatrix
    fvSymmTensorMatrix
    fvTensorMatrix
    fvVectorMatrix
    fvsPatchField
    gammaContactAngle
    gammaFixedPressure
    general
    generic
    genericPatch
    geomCellLooper
    geometricSurfacePatch
    global
    globalMeshData
    globalPoints
    gnuplot
    gradientDispersionRAS
    gradientEnthalpy
    gradientUnburntEnthalpy
    granularPressureModel
    hCombustionThermo
    hMixtureThermo<dieselMixture<sutherlandTransport<specieThermo<janafThermo<perfectGas>>>>>
    hMixtureThermo<homogeneousMixture<constTransport<specieThermo<hConstThermo<perfectGas>>>>>
    hMixtureThermo<homogeneousMixture<sutherlandTransport<specieThermo<janafThermo<perfectGas>>>>>
    hMixtureThermo<inhomogeneousMixture<constTransport<specieThermo<hConstThermo<perfectGas>>>>>
    hMixtureThermo<inhomogeneousMixture<sutherlandTransport<specieThermo<janafThermo<perfectGas>>>>>
    hMixtureThermo<multiComponentMixture<sutherlandTransport<specieThermo<janafThermo<perfectGas>>>>>
    hMixtureThermo<reactingMixture>
    hMixtureThermo<veryInhomogeneousMixture<constTransport<specieThermo<hConstThermo<perfectGas>>>>>
    hMixtureThermo<veryInhomogeneousMixture<sutherlandTransport<specieThermo<janafThermo<perfectGas>>>>>
    hThermo<pureMixture<constTransport<specieThermo<hConstThermo<perfectGas>>>>>
    hThermo<pureMixture<sutherlandTransport<specieThermo<hConstThermo<perfectGas>>>>>
    hThermo<pureMixture<sutherlandTransport<specieThermo<janafThermo<perfectGas>>>>>
    harmonic
    heatTransferModel
    hexCellLooper
    hexRef8
    hhuCombustionThermo
    hhuMixtureThermo<egrMixture<constTransport<specieThermo<hConstThermo<perfectGas>>>>>
    hhuMixtureThermo<egrMixture<sutherlandTransport<specieThermo<janafThermo<perfectGas>>>>>
    hhuMixtureThermo<homogeneousMixture<constTransport<specieThermo<hConstThermo<perfectGas>>>>>
    hhuMixtureThermo<homogeneousMixture<sutherlandTransport<specieThermo<janafThermo<perfectGas>>>>>
    hhuMixtureThermo<inhomogeneousMixture<constTransport<specieThermo<hConstThermo<perfectGas>>>>>
    hhuMixtureThermo<inhomogeneousMixture<sutherlandTransport<specieThermo<janafThermo<perfectGas>>>>>
    hhuMixtureThermo<veryInhomogeneousMixture<constTransport<specieThermo<hConstThermo<perfectGas>>>>>
    hhuMixtureThermo<veryInhomogeneousMixture<sutherlandTransport<specieThermo<janafThermo<perfectGas>>>>>
    hierarchical
    hollowConeInjector
    include
    indexedOctree
    indexedParticle
    injectorModel
    injectorType
    inletOutlet
    inletOutletTotalTemperature
    inputMode
    interfaceCompression
    intersectedSurface
    inverseDistance
    inverseFaceDistance
    inversePointDistance
    inverseVolume
    jplot
    jumpCyclic
    kEpsilon
    kOmegaSST
    kinematicCloud
    kinematicParcel
    labelField
    labelList
    labelListList
    labelToCell
    labelToFace
    labelToPoint
    laminar
    laminarFlameSpeed
    laplace
    layerAdditionRemoval
    layered
    lduInterface
    lduInterfaceField
    lduMatrix
    lduMesh
    leastSquares
    leastSquaresVectors
    level
    limited
    limitedCubic
    limitedCubic01
    limitedCubicV
    limitedGamma
    limitedLimitedCubic
    limitedLimitedLinear
    limitedLinear
    limitedLinear01
    limitedLinearV
    limitedMUSCL
    limitedSurfaceInterpolationScheme
    limitedVanLeer
    linear
    linearUpwind
    linearUpwindV
    liquid
    locDynOneEqEddy
    localBlended
    localMax
    localMin
    localPointRegion
    lowReOneEqEddy
    manual
    massFlowRateInletVelocity
    meshCutAndRemove
    meshCutter
    meshModifier
    meshRefinement
    meshSearch
    meshToMesh
    metis
    midPoint
    midPointAndFace
    mixed
    mixedEnthalpy
    mixedSmagorinsky
    mixedUnburntEnthalpy
    mixerFvMesh
    modifyCell
    modifyFace
    modifyPoint
    motionDiffusivity
    motionDirectional
    motionSmoother
    motionSolver
    movingConeTopoFvMesh
    movingWallVelocity
    muSgsWallFunction
    multiDirRefinement
    multivariateSelection
    mutStandardRoughWallFunction
    nbrToCell
    nearestToCell
    noAbsorptionEmission
    noDragModel
    noRadiation
    none
    normal
    normalToFace
    nuSgsWallFunction
    null
    nutStandardRoughWallFunction
    nutStandardWallFunction
    nutWallFunction
    objectRegistry
    octree
    octreeDataEdges
    octreeDataFace
    octreeDataFaceList
    octreeDataTriSurface
    off
    offsetTriSurfaceMesh
    oneEqEddy
    orientedSurface
    oscillatingDisplacement
    oscillatingFixedValue
    oscillatingVelocity
    outletInlet
    outletStabilised
    pair
    parabolicCylindrical
    parcel
    partialSlip
    passiveParticle
    patch
    patchToFace
    patchZones
    pdf
    perfectInterface
    pointIndexHitList
    pointPatchField
    pointPatchInterpolation
    pointScalarField
    pointScalarField::DimensionedInternalField
    pointSet
    pointSphericalTensorField
    pointSphericalTensorField::DimensionedInternalField
    pointSymmTensorField
    pointSymmTensorField::DimensionedInternalField
    pointTensorField
    pointTensorField::DimensionedInternalField
    pointToCell
    pointToFace
    pointToPoint
    pointVectorField
    pointVectorField::DimensionedInternalField
    pointZone
    polyBoundaryMesh
    polyMesh
    polyMeshGeometry
    polyMeshInfo
    polyTopoChange
    polyTopoChanger
    pressureDirectedInletOutletVelocity
    pressureDirectedInletVelocity
    pressureInletOutletVelocity
    pressureInletUniformVelocity
    pressureInletVelocity
    pressureSwirlInjector
    primitiveMesh
    primitiveMeshGeometry
    probes
    processor
    processorLduInterface
    processorLduInterfaceField
    pureMixture<constTransport<specieThermo<hConstThermo<perfectGas>>>>
    pureMixture<sutherlandTransport<specieThermo<hConstThermo<perfectGas>>>>
    pureMixture<sutherlandTransport<specieThermo<janafThermo<perfectGas>>>>
    quadratic
    radialModel
    radiationModel
    raw
    reactingCloud
    reactingParcel
    reaction
    realizableKE
    refinementHistory
    refinementIterator
    reflect
    regIOobject
    regionSplit
    remove
    removeCell
    removeCells
    removeFace
    removeFaces
    removePoint
    removePoints
    reverseLinear
    rotatedBoxToCell
    rotatingPressureInletOutletVelocity
    rotatingTotalPressure
    sampledPatch
    sampledPlane
    sampledSet
    sampledSurface
    saturateEvaporationModel
    scalarAverageField
    scalarField
    scalarRange
    scaleSimilarity
    scatterModel
    searchableBox
    searchableSurface
    sequential
    setUpdater
    sets
    shapeList
    shapeToCell
    simple
    skewCorrected
    skewCorrectionVectors
    sliced
    slidingInterface
    slip
    smooth
    smoothSolver
    solid
    solidBodyMotionFunction
    solidBodyMotionFvMesh
    solution
    spectEddyVisc
    sphereToCell
    spherical
    sphericalTensorAverageField
    sphericalTensorField
    standardDragModel
    standardEvaporationModel
    static
    staticFvMesh
    steadyState
    stl
    stochasticDispersionRAS
    string
    supersonicFreestream
    surfaceFeatures
    surfaceInterpolation
    surfaceInterpolationScheme
    surfaceIntersection
    surfaceNormalFixedValue
    surfacePatch
    surfacePatchIOList
    surfaceScalarField
    surfaceScalarField::DimensionedInternalField
    surfaceSlipDisplacement
    surfaceSphericalTensorField
    surfaceSphericalTensorField::DimensionedInternalField
    surfaceSymmTensorField
    surfaceSymmTensorField::DimensionedInternalField
    surfaceTensorField
    surfaceTensorField::DimensionedInternalField
    surfaceToCell
    surfaceToPoint
    surfaceVectorField
    surfaceVectorField::DimensionedInternalField
    surfaceWriter
    surfaces
    swirlInjector
    symmTensorAverageField
    symmTensorField
    symmetryPlane
    syringePressure
    tensorAverageField
    tensorField
    thermoCloud
    thermoParcel
    thermophysicalFunction
    time
    timeVaryingGammaContactAngle
    timeVaryingMappedFixedValue
    timeVaryingUniformFixedValue
    timer
    topoAction
    topoCellLooper
    topoChangerFvMesh
    topoSet
    topoSetSource
    toroidal
    totalPressure
    totalTemperature
    trackedParticle
    trajectory
    transform
    treeDataCell
    treeDataFace
    treeDataTriSurface
    treeLeaf
    treeNode
    triSurface
    triSurfaceMesh
    triSurfaceMeshes
    turbulenceModel
    turbulentInlet
    turbulentIntensityKineticEnergyInlet
    turbulentMixingLengthDissipationRateInlet
    uncorrected
    undoableMeshCutter
    uniform
    uniformFixedValue
    unitInjector
    upwind
    value
    vanAlbada
    vanAlbadaV
    vanDriest
    vanLeer
    vanLeer01
    vanLeerV
    vector2DField
    vectorAverageField
    vectorField
    velocityComponentLaplacian
    velocityLaplacian
    viscosityModel
    volPointInterpolation
    volScalarField
    volScalarField::DimensionedInternalField
    volSphericalTensorField
    volSphericalTensorField::DimensionedInternalField
    volSymmTensorField
    volSymmTensorField::DimensionedInternalField
    volTensorField
    volTensorField::DimensionedInternalField
    volVectorField
    volVectorField::DimensionedInternalField
    vtk
    walkPatch
    wall
    wallHeatTransfer
    wallLayerCells
    wallModel
    waveTransmissive
    wedge
    weighted
    word
    writer
    xmgr
    zeroGradient
    zoneToCell
    zoneToFace
    zoneToPoint
}

InfoSwitches
{
    writePrecision  6;
    writeJobInfo    0;
    FoamXwriteComments 0;
}

OptimisationSwitches
{
    fileModificationSkew 10;
    commsType       nonBlocking; //scheduled; //blocking;
    floatTransfer   1;
    nProcsSimpleSum 0;
}

DimensionedConstants
{
	// SI units

    //- Universal gas constant [J/(kmol K)]
    R    8314.51;

    //- Standard pressure [Pa]
    Pstd 1.0e5;

    //- Standard temperature [K]
    Tstd 298.15;

    //- Stefan-Boltzmann constant [J/(K4 m2 s)]
    sigmaSB         sigmaSB [1 0 -3 -4 0 0 0] 5.670e-08;


    /* USCS units

    //- Universal gas constant [lbm ft2/(s2 kmol R)]
    R    3406.78;

    //- Standard pressure [lbm/(ft2)]
    Pstd  2088.6;

    //- Standard temperature [degR]
    Tstd  536.67;

    //- Stefan-Boltzmann constant [lbm /(degR4 ft s)]
    sigmaSB         sigmaSB [1 0 -3 -4 0 0 0] 8.2292e-08;
    */
}


// ************************************************************************* //
