/*--------------------------------*- C++ -*----------------------------------*\
| =========                 |                                                 |
| \\      /  F ield         | OpenFOAM: The Open Source CFD Toolbox           |
|  \\    /   O peration     | Version:  v2112                                 |
|   \\  /    A nd           | Website:  www.openfoam.com                      |
|    \\/     M anipulation  |                                                 |
\*---------------------------------------------------------------------------*/
FoamFile
{
    version     2.0;
    format      ascii;
    class       volScalarField;
    object      T;
}
// * * * * * * * * * * * * * * * * * * * * * * * * * * * * * * * * * * * * * //

dimensions      [0 0 0 1 0 0 0];

internalField   uniform 300;

boundaryField
{
    inlet
    {
        type            outletMappedUniformInletHeatAddition;
        outletPatch     outlet1;
        Q               5;     // Heat addition in W
        TMin            300;
        TMax            500;
        value           $internalField;
    }

    outlet1
    {
        type            inletOutlet;
        inletValue      $internalField;
        value           $internalField;
    }

    outlet2
    {
        type            inletOutlet;
        inletValue      $internalField;
        value           $internalField;
    }

    defaultFaces
    {
        type            zeroGradient;
    }
}


// ************************************************************************* //
