/*--------------------------------*- C++ -*----------------------------------*\
| =========                 |                                                 |
| \\      /  F ield         | OpenFOAM: The Open Source CFD Toolbox           |
|  \\    /   O peration     | Version:  v2112                                 |
|   \\  /    A nd           | Website:  www.openfoam.com                      |
|    \\/     M anipulation  |                                                 |
\*---------------------------------------------------------------------------*/
FoamFile
{
    version     2.0;
    format      ascii;
    class       dictionary;
    object      testDictCopy;
}
// * * * * * * * * * * * * * * * * * * * * * * * * * * * * * * * * * * * * * //

dimensions     [ 1 2 -2 0 0 0 0 ];

internalField   uniform 1;

boundaryField
{
    inlet_1  { type patch; }
    inlet_2  { type patch; }
}

// * * * * * * * * * * * * * * * * * * * * * * * * * * * * * * * * * * * * * //
