/*--------------------------------*- C++ -*----------------------------------*\
| =========                 |                                                 |
| \\      /  F ield         | OpenFOAM: The Open Source CFD Toolbox           |
|  \\    /   O peration     | Version:  dev                                   |
|   \\  /    A nd           | Web:      www.OpenFOAM.org                      |
|    \\/     M anipulation  |                                                 |
\*---------------------------------------------------------------------------*/
FoamFile
{
    version     2.0;
    format      ascii;
    class       dictionary;
    location    "system";
    object      fvSchemes;
}
// * * * * * * * * * * * * * * * * * * * * * * * * * * * * * * * * * * * * * //

ddtSchemes
{
    default         steadyState;
}

gradSchemes
{
    default         Gauss linear;
}

divSchemes
{
    div(phi,U)      Gauss upwind;
    div((muEff*dev2(T(grad(U))))) Gauss linear;
    div(phi,e)      Gauss upwind;
    div(phi,epsilon) Gauss upwind;
    div(phi,k)      Gauss upwind;
    div(phi,Ekp)    Gauss upwind;
}

laplacianSchemes
{
    laplacian(muEff,U) Gauss linear corrected;
    laplacian(alphaEff,e) Gauss linear corrected;
    laplacian((rho*rAU),p) Gauss linear corrected;
    laplacian(DepsilonEff,epsilon) Gauss linear corrected;
    laplacian(DkEff,k) Gauss linear corrected;
    laplacian(1,p)  Gauss linear corrected;
}

interpolationSchemes
{
    default         linear;
}

snGradSchemes
{
    default         corrected;
}

fluxRequired
{
    default         no;
    p               ;
}


// ************************************************************************* //
