/*--------------------------------*- C++ -*----------------------------------*\
| =========                 |                                                 |
| \\      /  F ield         | OpenFOAM: The Open Source CFD Toolbox           |
|  \\    /   O peration     | Version:  v2112                                 |
|   \\  /    A nd           | Website:  www.openfoam.com                      |
|    \\/     M anipulation  |                                                 |
\*---------------------------------------------------------------------------*/
FoamFile
{
    version     2.0;
    format      ascii;
    class       volVectorField;
    object      U;
}
// * * * * * * * * * * * * * * * * * * * * * * * * * * * * * * * * * * * * * //

dimensions      [ 0 1 -1 0 0 0 0 ];

internalField   uniform ( 59.96344962 2.0939698 0 );

boundaryField
{
    frontBack
    {
        type            empty;
    }

    suction
    {
        type            fixedValue;
        value           uniform ( 0 0 0 );
    }

    pressure
    {
        type            fixedValue;
        value           uniform ( 0 0 0 );
    }

    inlet
    {
        type            freestream;
        freestreamValue uniform ( 59.96344962 2.0939698 0 );
    }
}


// ************************************************************************* //
