/*--------------------------------*- C++ -*----------------------------------*\
| =========                 |                                                 |
| \\      /  F ield         | OpenFOAM: The Open Source CFD Toolbox           |
|  \\    /   O peration     | Version:  v2306                                 |
|   \\  /    A nd           | Website:  www.openfoam.com                      |
|    \\/     M anipulation  |                                                 |
\*---------------------------------------------------------------------------*/
FoamFile
{
    version     2.0;
    format      ascii;
    class       dictionary;
    object      optimisationDict;
}
// * * * * * * * * * * * * * * * * * * * * * * * * * * * * * * * * * * * * * //

optimisationManager    steadyOptimisation;

primalSolvers
{
    p1
    {
        active                 true;
        type                   incompressible;
        solver                 simple;

        solutionControls
        {
            nIters 3000;
            residualControl
            {
                "p.*"       1.e-7;
                "U.*"       1.e-7;
            }
        }
    }
}

adjointManagers
{
    am1
    {
        primalSolver             p1;
        adjointSolvers
        {
            as1
            {
                // choose adjoint solver
                //----------------------
                active                 true;
                type                   incompressible;
                solver                 adjointSimple;

                // manage objectives
                //------------------
                objectives
                {
                    type                incompressible;
                    objectiveNames
                    {
                        partition
                        {
                            weight            1;
                            type              flowRatePartition;
                            inletPatches      (inlet);
                            outletPatches     (outlet1 outlet2);
                            // Optional entry. If abscent, inlet flow rate will
                            // be partitioned equally between outlets
                            // targetPercentages (0.5 0.5);
                            normalize         true;
                        }
                    }
                }

                // ATC treatment
                //--------------
                ATCModel
                {
                    ATCModel        standard;
                }

                // solution control
                //------------------
                solutionControls
                {
                    nIters 3000;
                    residualControl
                    {
                        "pa.*"       1.e-7;
                        "Ua.*"       1.e-7;
                    }
                }
            }
        }
    }
}

optimisation
{
    optimisationType
    {
        type             shapeOptimisation;
        writeEachMesh    true;
    }
    sensitivities
    {
        type            volumetricBSplinesFI;
        patches         (upperWall lowerWall middleWall);
    }
    updateMethod
    {
        method  conjugateGradient;
    }
    meshMovement
    {
        type                   volumetricBSplines;
        maxAllowedDisplacement 1.e-3;
    }
}

// ************************************************************************* //
