/*--------------------------------*- C++ -*----------------------------------*\
| =========                 |                                                 |
| \\      /  F ield         | OpenFOAM: The Open Source CFD Toolbox           |
|  \\    /   O peration     | Version:  1.6                                   |
|   \\  /    A nd           | Web:      http://www.OpenFOAM.org               |
|    \\/     M anipulation  |                                                 |
\*---------------------------------------------------------------------------*/
FoamFile
{
    version     2.0;
    format      ascii;
    class       dictionary;
    object      blockMeshDict;
}
// * * * * * * * * * * * * * * * * * * * * * * * * * * * * * * * * * * * * * //

convertToMeters 1;

vertices
(
    ( -0.04 -0.043 -0.04)
    (  0.04 -0.043 -0.04)
    (  0.04  0.04 -0.04)
    ( -0.04  0.04 -0.04)
    ( -0.04 -0.043 0.01)
    (  0.04 -0.043 0.01)
    (  0.04  0.04 0.01)
    ( -0.04  0.04 0.01)
);

blocks
(
    hex (0 1 2 3 4 5 6 7) (20 20 12) simpleGrading (1 1 1)
);

edges
(
);

patches
(
    patch allBoundary
    (
        (3 7 6 2)
        (0 4 7 3)
        (2 6 5 1)
        (1 5 4 0)
        (0 3 2 1)
        (4 5 6 7)
    )
);

// ************************************************************************* //
