/*--------------------------------*- C++ -*----------------------------------*\
| =========                 |                                                 |
| \\      /  F ield         | OpenFOAM: The Open Source CFD Toolbox           |
|  \\    /   O peration     | Version:  dev                                   |
|   \\  /    A nd           | Web:      www.OpenFOAM.com                      |
|    \\/     M anipulation  |                                                 |
\*---------------------------------------------------------------------------*/
FoamFile
{
    version     2.0;
    format      ascii;
    class       dictionary;
    object      blockMeshDict;
}
// * * * * * * * * * * * * * * * * * * * * * * * * * * * * * * * * * * * * * //

convertToMeters 1;

vertices
(
    ( -0.0260093 -0.0275 -0.02375)
    (  0.0260093 -0.0275 -0.02375)
    (  0.0260093  0.0225 -0.02375)
    ( -0.0260093  0.0225 -0.02375)
    ( -0.0260093 -0.0275 0.00225014)
    (  0.0260093 -0.0275 0.00225014)
    (  0.0260093  0.0225 0.00225014)
    ( -0.0260093  0.0225 0.00225014)
);

blocks
(
    hex (0 1 2 3 4 5 6 7) (15 15 9) simpleGrading (1 1 1)
);

edges
(
);

patches
(
    patch allBoundary
    (
        (3 7 6 2)
        (0 4 7 3)
        (2 6 5 1)
        (1 5 4 0)
        (0 3 2 1)
        (4 5 6 7)
    )
);

// ************************************************************************* //
