/*--------------------------------*- C++ -*----------------------------------*\
| =========                 |                                                 |
| \\      /  F ield         | OpenFOAM: The Open Source CFD Toolbox           |
|  \\    /   O peration     | Version:  v2112                                 |
|   \\  /    A nd           | Website:  www.openfoam.com                      |
|    \\/     M anipulation  |                                                 |
\*---------------------------------------------------------------------------*/
FoamFile
{
    version     2.0;
    format      ascii;
    class       dictionary;
    object      controlDict;
}
// * * * * * * * * * * * * * * * * * * * * * * * * * * * * * * * * * * * * * //

application     chtMultiRegionFoam;

startFrom       startTime;

startTime       0;

stopAt          endTime;

endTime         400;

deltaT          0.0001;

writeControl    adjustable;

writeInterval   1;

purgeWrite      0;

writeFormat     binary;

writePrecision  10;

writeCompression off;

timeFormat      general;

timePrecision   6;

runTimeModifiable true;

adjustTimeStep  yes;

maxCo           5;

maxDeltaT       1;

functions
{
    massFlux
    {
        type            surfaceFieldValue;
        libs            (fieldFunctionObjects);
        enabled         yes;
        writeControl    timeStep;
        writeInterval   1;
        log             yes;
        writeFields     no;
        regionType      patch;
        name            inlet;
        operation       sum;
        fields          (phi);
        region          cabin;
    }
}


// ************************************************************************* //
