/*--------------------------------*- C++ -*----------------------------------*\
| =========                 |                                                 |
| \\      /  F ield         | OpenFOAM: The Open Source CFD Toolbox           |
|  \\    /   O peration     | Version:  v2112                                 |
|   \\  /    A nd           | Website:  www.openfoam.com                      |
|    \\/     M anipulation  |                                                 |
\*---------------------------------------------------------------------------*/
FoamFile
{
    version     2.0;
    format      ascii;
    class       dictionary;
    object      controlDict;
}
// * * * * * * * * * * * * * * * * * * * * * * * * * * * * * * * * * * * * * //

application     icoFoam;

startFrom       latestTime;

startTime       0;

stopAt          nextWrite;

endTime         0.5;

deltaT          0.005;

writeControl    timeStep;

writeInterval   1;

purgeWrite      0;

writeFormat     ascii;

writePrecision  6;

writeCompression off;

timeFormat      general;

timePrecision   6;

runTimeModifiable true;

functions
{
    meshInterp1
    {
        // Mandatory entries
        type            mapFields;
        libs            (fieldFunctionObjects);
        mapRegion       coarseMesh;
        mapMethod       cellVolumeWeight;
        consistent      yes;
        fields          (U); // ("U.*" "p.*");

        // Optional entries
        // patchMapMethod  directAMI;  // AMI-related entry
        // patchMap     (<patchSrc> <patchTgt>);  // if consistent=false
        // cuttingPatches (<patchTgt1> ... <patchTgtN>); // if consisten=false

        // Optional (inherited) entries
        region          region0;
        enabled         true;
        log             true;
        timeStart       0;
        timeEnd         1000;
        executeControl  timeStep;
        executeInterval 1;
        writeControl    timeStep;
        writeInterval   1;
    }
}


// ************************************************************************* //
