FoamFile
{
    version         1.4.2;
    format          ascii;

    root            "..";
    case            "testCase2";
    instance        "constant";
    local           "";

    class           dictionary;
    object          gmtDict;
}

// How to plot
projection "x10";
overlayMesh true;
projection2D XY;
patch originalPatch;
