/*--------------------------------*- C++ -*----------------------------------*\
| =========                 |                                                 |
| \\      /  F ield         | OpenFOAM: The Open Source CFD Toolbox           |
|  \\    /   O peration     | Version:  v2112                                 |
|   \\  /    A nd           | Website:  www.openfoam.com                      |
|    \\/     M anipulation  |                                                 |
\*---------------------------------------------------------------------------*/
FoamFile
{
    version     2.0;
    format      ascii;
    class       dictionary;
    location    "system";
    object      fvOptions;
}
// * * * * * * * * * * * * * * * * * * * * * * * * * * * * * * * * * * * * * //

v_CPU_AbsoluteEnergySource
{
    type            scalarSemiImplicitSource;
    active          true;

    scalarSemiImplicitSourceCoeffs
    {
        selectionMode   cellZone;
        cellZone        v_CPU;
        volumeMode      absolute;

        injectionRateSuSp
        {
            h           ( 100 0 );
        }
    }
}

// ************************************************************************* //
