/*--------------------------------*- C++ -*----------------------------------*\
| =========                 |                                                 |
| \\      /  F ield         | OpenFOAM: The Open Source CFD Toolbox           |
|  \\    /   O peration     | Version:  dev                                   |
|   \\  /    A nd           | Web:      www.OpenFOAM.org                      |
|    \\/     M anipulation  |                                                 |
\*---------------------------------------------------------------------------*/
FoamFile
{
    version     2.0;
    format      ascii;
    class       dictionary;
    location    "system";
    object      fvSchemes;
}
// * * * * * * * * * * * * * * * * * * * * * * * * * * * * * * * * * * * * * //

ddtSchemes
{
    default         Euler;

    "ddt\(alpha.*,.*\)"  bounded Euler;
}

gradSchemes
{
    default         Gauss linear;
}

divSchemes
{
    default             none;

    div(phi,alpha1)         Gauss vanLeer;
    div(phir,alpha1)        Gauss vanLeer;

    "div\(alphaPhi.,U.\)"   bounded Gauss limitedLinearV 1;
    "div\(phi.,U.\)"        Gauss limitedLinearV 1;
    "div\(\(alpha.*Rc\)\)"  Gauss linear;
    "div\(phid.,p\)"        Gauss linear;

    "div\(alphaPhi.,h.\)"   bounded Gauss limitedLinear 1;
    "div\(phi.,K.\)"        Gauss linear;

    "div\(alphaPhi.,(k|epsilon)\)"  bounded Gauss limitedLinear 1;
}

laplacianSchemes
{
    default         Gauss linear corrected;
}

interpolationSchemes
{
    default         linear;
}

snGradSchemes
{
    default         corrected;
}

fluxRequired
{
    default         no;
    p               ;
    alpha1;
}


// ************************************************************************* //
