/*--------------------------------*- C++ -*----------------------------------*\
| =========                 |                                                 |
| \\      /  F ield         | OpenFOAM: The Open Source CFD Toolbox           |
|  \\    /   O peration     | Version:  v1806                                 |
|   \\  /    A nd           | Web:      www.OpenFOAM.com                      |
|    \\/     M anipulation  |                                                 |
\*---------------------------------------------------------------------------*/
FoamFile
{
    version     2.0;
    format      ascii;
    class       dictionary;
    object      blockMeshDict;
}
// * * * * * * * * * * * * * * * * * * * * * * * * * * * * * * * * * * * * * //

scale   0.001;

vertices
(
    ( 0 0 0)
    (10 0 0)
    (10 6 0)
    ( 0 6 0)
    ( 0 0 1)
    (10 0 1)
    (10 6 1)
    ( 0 6 1)
);

blocks
(
    hex (0 1 2 3 4 5 6 7) (20 12 1) simpleGrading (1 1 1)
);

edges
(
);

boundary
(
    maxY
    {
        type wall;
        faces
        (
            (3 7 6 2)
        );
    }
    minY
    {
        type wall;
        faces
        (
            (1 5 4 0)
        );
    }
    minX
    {
        type patch;
        faces
        (
            (0 4 7 3)
        );
    }
    maxX
    {
        type patch;
        faces
        (
            (2 6 5 1)
        );
    }
    frontAndBack
    {
        type empty;
        faces
        (
            (0 3 2 1)
            (4 5 6 7)
        );
    }
);

mergePatchPairs
(
);

// ************************************************************************* //
