/*---------------------------------------------------------------------------*\
| =========                 |                                                 |
| \\      /  F ield         | OpenFOAM: The Open Source CFD Toolbox           |
|  \\    /   O peration     | Version:  1.4                                   |
|   \\  /    A nd           | Web:      http://www.openfoam.org               |
|    \\/     M anipulation  |                                                 |
\*---------------------------------------------------------------------------*/

FoamFile
{
    version         2.0;
    format          ascii;

    root            "";
    case            "";
    instance        "";
    local           "";

    class           dictionary;
    object          combustionProperties;
}

// * * * * * * * * * * * * * * * * * * * * * * * * * * * * * * * * * * * * * //

Cmix                Cmix [ 0 0 0 0 0 0 0 ] 1.0 ;

ignitionProperties1
{
    ignite              off;
    
    ignitionPoint       ignitionPoint   [ 0 1 0 0 0 0 0 ] ( 0.2 0 0.02 ) ;

    timing              timing          [ 0 0 1 0 0 0 0 ] 0.0e-1 ;

    duration            duration        [ 0 0 1 0 0 0 0 ] 1.0e-0 ;
}

// ************************************************************************* //
