/*---------------------------------------------------------------------------*\
| =========                 |                                                 |
| \\      /  F ield         | OpenFOAM: The Open Source CFD Toolbox           |
|  \\    /   O peration     | Version:  1.4                                   |
|   \\  /    A nd           | Web:      http://www.openfoam.org               |
|    \\/     M anipulation  |                                                 |
\*---------------------------------------------------------------------------*/

FoamFile
{
    version         2.0;
    format          ascii;

    root            "";
    case            "";
    instance        "";
    local           "";

    class           dictionary;
    object          thermodynamicProperties;
}

/* * * * * * * * * * * * * * * * * * * * * * * * * * * * * * * * * * */

thermoType hMixtureThermo<reactingMixture>;

CHEMKINFile                 "$FOAM_ROOT/$FOAM_CASE/chemkin/chem.inp";
CHEMKINThermoFile           "$FOAM_ROOT/$FOAM_CASE/chemkin/therm.dat";

inertSpecie                 N2;

liquidFuelComponents
(
    C7H16
);

C7H16               C7H16           defaultCoeffs;

/*********************************************************************/
