/*--------------------------------*- C++ -*----------------------------------*\
| =========                 |                                                 |
| \\      /  F ield         | OpenFOAM: The Open Source CFD Toolbox           |
|  \\    /   O peration     | Version:  1.5                                   |
|   \\  /    A nd           | Web:      http://www.OpenFOAM.org               |
|    \\/     M anipulation  |                                                 |
\*---------------------------------------------------------------------------*/
FoamFile
{
    version     2.0;
    format      ascii;
    class       dictionary;
    object      turbulenceProperties;
}
// * * * * * * * * * * * * * * * * * * * * * * * * * * * * * * * * * * * * * //

<<<<<<< HEAD:tutorials/dieselFoam/aachenBomb/constant/turbulenceProperties
simulationType RASModel;
=======
simulationType      RASModel;
>>>>>>> c2eac7aaca53e9702c56bbbbd2c0dc47a83829e0:tutorials/dieselFoam/aachenBomb/constant/turbulenceProperties

// ************************************************************************* //
