/*--------------------------------*- C++ -*----------------------------------*\
| =========                 |                                                 |
| \\      /  F ield         | OpenFOAM: The Open Source CFD Toolbox           |
|  \\    /   O peration     | Version:  v2112                                 |
|   \\  /    A nd           | Website:  www.openfoam.com                      |
|    \\/     M anipulation  |                                                 |
\*---------------------------------------------------------------------------*/
FoamFile
{
    version     2.0;
    format      ascii;
    class       volVectorField;
    object      U;
}
// * * * * * * * * * * * * * * * * * * * * * * * * * * * * * * * * * * * * * //

dimensions      [0 1 -1 0 0 0 0];

internalField   uniform (0 0 0);

boundaryField
{
    AMI1a
    {
        type            cyclicAMI;
        value           uniform (0 0 0);
    }

    AMI1b
    {
        type            cyclicAMI;
        value           uniform (0 0 0);
    }

    rotor
    {
        type            movingWallVelocity;
        value           uniform (0 0 0);
    }

    ".*"
    {
        type            fixedValue;
        value           uniform (0 0 0);
    }

    defaultFaces
    {
        type            empty;
    }
}


// ************************************************************************* //
