/*--------------------------------*- C++ -*----------------------------------*\
| =========                 |                                                 |
| \\      /  F ield         | OpenFOAM: The Open Source CFD Toolbox           |
|  \\    /   O peration     | Version:  dev                                   |
|   \\  /    A nd           | Web:      www.OpenFOAM.com                      |
|    \\/     M anipulation  |                                                 |
\*---------------------------------------------------------------------------*/
FoamFile
{
    version     2.0;
    format      ascii;
    class       polyBoundaryMesh;
    location    "constant/polyMesh";
    object      boundary;
}
// * * * * * * * * * * * * * * * * * * * * * * * * * * * * * * * * * * * * * //

72
(
    frontAndBack
    {
        type            patch;
        nFaces          320;
        startFace       1027872;
    }
    inlet
    {
        type            patch;
        nFaces          64;
        startFace       1028192;
    }
    outlet
    {
        type            patch;
        nFaces          64;
        startFace       1028256;
    }
    lowerWall
    {
        type            wall;
        nFaces          5330;
        startFace       1028320;
    }
    upperWall
    {
        type            patch;
        nFaces          160;
        startFace       1033650;
    }
    motorBike_frt-fairing:001%1
    {
        type            wall;
        nFaces          5416;
        startFace       1033810;
    }
    motorBike_windshield:002%2
    {
        type            wall;
        nFaces          50;
        startFace       1039226;
    }
    motorBike_rr-wh-rim:005%5
    {
        type            wall;
        nFaces          137;
        startFace       1039276;
    }
    motorBike_rr-wh-rim:010%10
    {
        type            wall;
        nFaces          340;
        startFace       1039413;
    }
    motorBike_fr-wh-rim:011%11
    {
        type            wall;
        nFaces          473;
        startFace       1039753;
    }
    motorBike_fr-wh-brake-disk:012%12
    {
        type            wall;
        nFaces          54;
        startFace       1040226;
    }
    motorBike_frame:016-shadow%13
    {
        type            wall;
        nFaces          98;
        startFace       1040280;
    }
    motorBike_rear-susp:014%14
    {
        type            wall;
        nFaces          844;
        startFace       1040378;
    }
    motorBike_rear-susp:014-shadow%15
    {
        type            wall;
        nFaces          461;
        startFace       1041222;
    }
    motorBike_frame:016%16
    {
        type            wall;
        nFaces          67;
        startFace       1041683;
    }
    motorBike_rr-wh-rim:005-shadow%17
    {
        type            wall;
        nFaces          70;
        startFace       1041750;
    }
    motorBike_rr-wh-chain-hub:022%22
    {
        type            wall;
        nFaces          141;
        startFace       1041820;
    }
    motorBike_rearseat%24
    {
        type            wall;
        nFaces          430;
        startFace       1041961;
    }
    motorBike_frt-fairing%25
    {
        type            wall;
        nFaces          626;
        startFace       1042391;
    }
    motorBike_windshield%26
    {
        type            wall;
        nFaces          368;
        startFace       1043017;
    }
    motorBike_headlights%27
    {
        type            wall;
        nFaces          161;
        startFace       1043385;
    }
    motorBike_driversseat%28
    {
        type            wall;
        nFaces          368;
        startFace       1043546;
    }
    motorBike_rear-body%29
    {
        type            wall;
        nFaces          2077;
        startFace       1043914;
    }
    motorBike_fuel-tank%30
    {
        type            wall;
        nFaces          912;
        startFace       1045991;
    }
    motorBike_exhaust%31
    {
        type            wall;
        nFaces          2392;
        startFace       1046903;
    }
    motorBike_rr-wh-rim%32
    {
        type            wall;
        nFaces          1430;
        startFace       1049295;
    }
    motorBike_fr-mud-guard%33
    {
        type            wall;
        nFaces          624;
        startFace       1050725;
    }
    motorBike_fr-wh-rim%34
    {
        type            wall;
        nFaces          591;
        startFace       1051349;
    }
    motorBike_fr-wh-brake-disk%35
    {
        type            wall;
        nFaces          427;
        startFace       1051940;
    }
    motorBike_fr-brake-caliper%36
    {
        type            wall;
        nFaces          164;
        startFace       1052367;
    }
    motorBike_fr-wh-tyre%37
    {
        type            wall;
        nFaces          1116;
        startFace       1052531;
    }
    motorBike_hbars%38
    {
        type            wall;
        nFaces          535;
        startFace       1053647;
    }
    motorBike_fr-forks%39
    {
        type            wall;
        nFaces          1140;
        startFace       1054182;
    }
    motorBike_chain%40
    {
        type            wall;
        nFaces          474;
        startFace       1055322;
    }
    motorBike_rr-wh-tyre%41
    {
        type            wall;
        nFaces          1787;
        startFace       1055796;
    }
    motorBike_square-dial%42
    {
        type            wall;
        nFaces          6;
        startFace       1057583;
    }
    motorBike_round-dial%43
    {
        type            wall;
        nFaces          17;
        startFace       1057589;
    }
    motorBike_dial-holder%44
    {
        type            wall;
        nFaces          87;
        startFace       1057606;
    }
    motorBike_rear-susp%45
    {
        type            wall;
        nFaces          1786;
        startFace       1057693;
    }
    motorBike_rear-brake-lights%46
    {
        type            wall;
        nFaces          53;
        startFace       1059479;
    }
    motorBike_rear-light-bracket%47
    {
        type            wall;
        nFaces          163;
        startFace       1059532;
    }
    motorBike_frame%48
    {
        type            wall;
        nFaces          2040;
        startFace       1059695;
    }
    motorBike_rear-mud-guard%49
    {
        type            wall;
        nFaces          663;
        startFace       1061735;
    }
    motorBike_rear-susp-spring-damp%50
    {
        type            wall;
        nFaces          107;
        startFace       1062398;
    }
    motorBike_fairing-inner-plate%51
    {
        type            wall;
        nFaces          445;
        startFace       1062505;
    }
    motorBike_clutch-housing%52
    {
        type            wall;
        nFaces          970;
        startFace       1062950;
    }
    motorBike_radiator%53
    {
        type            wall;
        nFaces          39;
        startFace       1063920;
    }
    motorBike_water-pipe%54
    {
        type            wall;
        nFaces          104;
        startFace       1063959;
    }
    motorBike_water-pump%55
    {
        type            wall;
        nFaces          74;
        startFace       1064063;
    }
    motorBike_engine%56
    {
        type            wall;
        nFaces          2389;
        startFace       1064137;
    }
    motorBike_rear-shock-link%57
    {
        type            wall;
        nFaces          26;
        startFace       1066526;
    }
    motorBike_rear-brake-fluid-pot-bracket%58
    {
        type            wall;
        nFaces          44;
        startFace       1066552;
    }
    motorBike_rear-brake-fluid-pot%59
    {
        type            wall;
        nFaces          53;
        startFace       1066596;
    }
    motorBike_footpeg%60
    {
        type            wall;
        nFaces          86;
        startFace       1066649;
    }
    motorBike_rr-wh-chain-hub%61
    {
        type            wall;
        nFaces          122;
        startFace       1066735;
    }
    motorBike_rear-brake-caliper%62
    {
        type            wall;
        nFaces          142;
        startFace       1066857;
    }
    motorBike_rider-helmet%65
    {
        type            wall;
        nFaces          583;
        startFace       1066999;
    }
    motorBike_rider-visor%66
    {
        type            wall;
        nFaces          95;
        startFace       1067582;
    }
    motorBike_rider-boots%67
    {
        type            wall;
        nFaces          1025;
        startFace       1067677;
    }
    motorBike_rider-gloves%68
    {
        type            wall;
        nFaces          319;
        startFace       1068702;
    }
    motorBike_rider-body%69
    {
        type            wall;
        nFaces          4555;
        startFace       1069021;
    }
    motorBike_frame:0%70
    {
        type            wall;
        nFaces          37;
        startFace       1073576;
    }
    motorBike_frt-fairing:001-shadow%74
    {
        type            wall;
        nFaces          3317;
        startFace       1073613;
    }
    motorBike_windshield-shadow%75
    {
        type            wall;
        nFaces          236;
        startFace       1076930;
    }
    motorBike_fr-mud-guard-shadow%81
    {
        type            wall;
        nFaces          350;
        startFace       1077166;
    }
    motorBike_fr-wh-brake-disk-shadow%83
    {
        type            wall;
        nFaces          186;
        startFace       1077516;
    }
    motorBike_rear-mud-guard-shadow%84
    {
        type            wall;
        nFaces          388;
        startFace       1077702;
    }
    motorBike_rear-susp-spring-damp-shadow%85
    {
        type            wall;
        nFaces          41;
        startFace       1078090;
    }
    motorBike_radiator-shadow%86
    {
        type            wall;
        nFaces          22;
        startFace       1078131;
    }
    motorBike_rear-shock-link-shadow%87
    {
        type            wall;
        nFaces          9;
        startFace       1078153;
    }
    motorBike_rear-brake-fluid-pot-bracket-shadow%88
    {
        type            wall;
        nFaces          22;
        startFace       1078162;
    }
    motorBike_rr-wh-chain-hub-shadow%89
    {
        type            wall;
        nFaces          53;
        startFace       1078184;
    }
)

// ************************************************************************* //
