/*--------------------------------*- C++ -*----------------------------------*\
| =========                 |                                                 |
| \\      /  F ield         | OpenFOAM: The Open Source CFD Toolbox           |
|  \\    /   O peration     | Version:  dev                                   |
|   \\  /    A nd           | Web:      www.OpenFOAM.org                      |
|    \\/     M anipulation  |                                                 |
\*---------------------------------------------------------------------------*/
FoamFile
{
    version     2.0;
    format      ascii;
    class       polyBoundaryMesh;
    location    "constant/polyMesh";
    object      boundary;
}
// * * * * * * * * * * * * * * * * * * * * * * * * * * * * * * * * * * * * * //

72
(
    frontAndBack
    {
        type            patch;
        nFaces          320;
        startFace       1016673;
    }
    inlet
    {
        type            patch;
        nFaces          64;
        startFace       1016993;
    }
    outlet
    {
        type            patch;
        nFaces          64;
        startFace       1017057;
    }
    lowerWall
    {
        type            wall;
        nFaces          5330;
        startFace       1017121;
    }
    upperWall
    {
        type            patch;
        nFaces          160;
        startFace       1022451;
    }
    motorBike_frt-fairing:001%1
    {
        type            wall;
        nFaces          6626;
        startFace       1022611;
    }
    motorBike_windshield:002%2
    {
        type            wall;
        nFaces          50;
        startFace       1029237;
    }
    motorBike_rr-wh-rim:005%5
    {
        type            wall;
        nFaces          181;
        startFace       1029287;
    }
    motorBike_rr-wh-rim:010%10
    {
        type            wall;
        nFaces          340;
        startFace       1029468;
    }
    motorBike_fr-wh-rim:011%11
    {
        type            wall;
        nFaces          474;
        startFace       1029808;
    }
    motorBike_fr-wh-brake-disk:012%12
    {
        type            wall;
        nFaces          54;
        startFace       1030282;
    }
    motorBike_frame:016-shadow%13
    {
        type            wall;
        nFaces          131;
        startFace       1030336;
    }
    motorBike_rear-susp:014%14
    {
        type            wall;
        nFaces          1073;
        startFace       1030467;
    }
    motorBike_rear-susp:014-shadow%15
    {
        type            wall;
        nFaces          159;
        startFace       1031540;
    }
    motorBike_frame:016%16
    {
        type            wall;
        nFaces          20;
        startFace       1031699;
    }
    motorBike_rr-wh-rim:005-shadow%17
    {
        type            wall;
        nFaces          25;
        startFace       1031719;
    }
    motorBike_rr-wh-chain-hub:022%22
    {
        type            wall;
        nFaces          141;
        startFace       1031744;
    }
    motorBike_rearseat%24
    {
        type            wall;
        nFaces          432;
        startFace       1031885;
    }
    motorBike_frt-fairing%25
    {
        type            wall;
        nFaces          626;
        startFace       1032317;
    }
    motorBike_windshield%26
    {
        type            wall;
        nFaces          428;
        startFace       1032943;
    }
    motorBike_headlights%27
    {
        type            wall;
        nFaces          161;
        startFace       1033371;
    }
    motorBike_driversseat%28
    {
        type            wall;
        nFaces          367;
        startFace       1033532;
    }
    motorBike_rear-body%29
    {
        type            wall;
        nFaces          2076;
        startFace       1033899;
    }
    motorBike_fuel-tank%30
    {
        type            wall;
        nFaces          912;
        startFace       1035975;
    }
    motorBike_exhaust%31
    {
        type            wall;
        nFaces          2391;
        startFace       1036887;
    }
    motorBike_rr-wh-rim%32
    {
        type            wall;
        nFaces          1430;
        startFace       1039278;
    }
    motorBike_fr-mud-guard%33
    {
        type            wall;
        nFaces          767;
        startFace       1040708;
    }
    motorBike_fr-wh-rim%34
    {
        type            wall;
        nFaces          592;
        startFace       1041475;
    }
    motorBike_fr-wh-brake-disk%35
    {
        type            wall;
        nFaces          533;
        startFace       1042067;
    }
    motorBike_fr-brake-caliper%36
    {
        type            wall;
        nFaces          164;
        startFace       1042600;
    }
    motorBike_fr-wh-tyre%37
    {
        type            wall;
        nFaces          1118;
        startFace       1042764;
    }
    motorBike_hbars%38
    {
        type            wall;
        nFaces          535;
        startFace       1043882;
    }
    motorBike_fr-forks%39
    {
        type            wall;
        nFaces          1144;
        startFace       1044417;
    }
    motorBike_chain%40
    {
        type            wall;
        nFaces          474;
        startFace       1045561;
    }
    motorBike_rr-wh-tyre%41
    {
        type            wall;
        nFaces          1785;
        startFace       1046035;
    }
    motorBike_square-dial%42
    {
        type            wall;
        nFaces          6;
        startFace       1047820;
    }
    motorBike_round-dial%43
    {
        type            wall;
        nFaces          18;
        startFace       1047826;
    }
    motorBike_dial-holder%44
    {
        type            wall;
        nFaces          87;
        startFace       1047844;
    }
    motorBike_rear-susp%45
    {
        type            wall;
        nFaces          1787;
        startFace       1047931;
    }
    motorBike_rear-brake-lights%46
    {
        type            wall;
        nFaces          54;
        startFace       1049718;
    }
    motorBike_rear-light-bracket%47
    {
        type            wall;
        nFaces          163;
        startFace       1049772;
    }
    motorBike_frame%48
    {
        type            wall;
        nFaces          2040;
        startFace       1049935;
    }
    motorBike_rear-mud-guard%49
    {
        type            wall;
        nFaces          804;
        startFace       1051975;
    }
    motorBike_rear-susp-spring-damp%50
    {
        type            wall;
        nFaces          125;
        startFace       1052779;
    }
    motorBike_fairing-inner-plate%51
    {
        type            wall;
        nFaces          446;
        startFace       1052904;
    }
    motorBike_clutch-housing%52
    {
        type            wall;
        nFaces          966;
        startFace       1053350;
    }
    motorBike_radiator%53
    {
        type            wall;
        nFaces          48;
        startFace       1054316;
    }
    motorBike_water-pipe%54
    {
        type            wall;
        nFaces          103;
        startFace       1054364;
    }
    motorBike_water-pump%55
    {
        type            wall;
        nFaces          74;
        startFace       1054467;
    }
    motorBike_engine%56
    {
        type            wall;
        nFaces          2384;
        startFace       1054541;
    }
    motorBike_rear-shock-link%57
    {
        type            wall;
        nFaces          29;
        startFace       1056925;
    }
    motorBike_rear-brake-fluid-pot-bracket%58
    {
        type            wall;
        nFaces          59;
        startFace       1056954;
    }
    motorBike_rear-brake-fluid-pot%59
    {
        type            wall;
        nFaces          53;
        startFace       1057013;
    }
    motorBike_footpeg%60
    {
        type            wall;
        nFaces          87;
        startFace       1057066;
    }
    motorBike_rr-wh-chain-hub%61
    {
        type            wall;
        nFaces          145;
        startFace       1057153;
    }
    motorBike_rear-brake-caliper%62
    {
        type            wall;
        nFaces          142;
        startFace       1057298;
    }
    motorBike_rider-helmet%65
    {
        type            wall;
        nFaces          583;
        startFace       1057440;
    }
    motorBike_rider-visor%66
    {
        type            wall;
        nFaces          95;
        startFace       1058023;
    }
    motorBike_rider-boots%67
    {
        type            wall;
        nFaces          1025;
        startFace       1058118;
    }
    motorBike_rider-gloves%68
    {
        type            wall;
        nFaces          320;
        startFace       1059143;
    }
    motorBike_rider-body%69
    {
        type            wall;
        nFaces          4555;
        startFace       1059463;
    }
    motorBike_frame:0%70
    {
        type            wall;
        nFaces          37;
        startFace       1064018;
    }
    motorBike_frt-fairing:001-shadow%74
    {
        type            wall;
        nFaces          1274;
        startFace       1064055;
    }
    motorBike_windshield-shadow%75
    {
        type            wall;
        nFaces          101;
        startFace       1065329;
    }
    motorBike_fr-mud-guard-shadow%81
    {
        type            wall;
        nFaces          129;
        startFace       1065430;
    }
    motorBike_fr-wh-brake-disk-shadow%83
    {
        type            wall;
        nFaces          77;
        startFace       1065559;
    }
    motorBike_rear-mud-guard-shadow%84
    {
        type            wall;
        nFaces          138;
        startFace       1065636;
    }
    motorBike_rear-susp-spring-damp-shadow%85
    {
        type            wall;
        nFaces          15;
        startFace       1065774;
    }
    motorBike_radiator-shadow%86
    {
        type            wall;
        nFaces          12;
        startFace       1065789;
    }
    motorBike_rear-shock-link-shadow%87
    {
        type            wall;
        nFaces          7;
        startFace       1065801;
    }
    motorBike_rear-brake-fluid-pot-bracket-shadow%88
    {
        type            wall;
        nFaces          6;
        startFace       1065808;
    }
    motorBike_rr-wh-chain-hub-shadow%89
    {
        type            wall;
        nFaces          24;
        startFace       1065814;
    }
)

// ************************************************************************* //
