/*--------------------------------*- C++ -*----------------------------------*\
| =========                 |                                                 |
| \\      /  F ield         | OpenFOAM: The Open Source CFD Toolbox           |
|  \\    /   O peration     | Version:  dev                                   |
|   \\  /    A nd           | Web:      www.OpenFOAM.com                      |
|    \\/     M anipulation  |                                                 |
\*---------------------------------------------------------------------------*/
FoamFile
{
    version     2.0;
    format      ascii;
    class       polyBoundaryMesh;
    location    "constant/polyMesh";
    object      boundary;
}
// * * * * * * * * * * * * * * * * * * * * * * * * * * * * * * * * * * * * * //

72
(
    frontAndBack
    {
        type            patch;
        nFaces          320;
        startFace       1028059;
    }
    inlet
    {
        type            patch;
        nFaces          64;
        startFace       1028379;
    }
    outlet
    {
        type            patch;
        nFaces          64;
        startFace       1028443;
    }
    lowerWall
    {
        type            wall;
        nFaces          5330;
        startFace       1028507;
    }
    upperWall
    {
        type            patch;
        nFaces          160;
        startFace       1033837;
    }
    motorBike_frt-fairing:001%1
    {
        type            wall;
        nFaces          5410;
        startFace       1033997;
    }
    motorBike_windshield:002%2
    {
        type            wall;
        nFaces          50;
        startFace       1039407;
    }
    motorBike_rr-wh-rim:005%5
    {
        type            wall;
        nFaces          136;
        startFace       1039457;
    }
    motorBike_rr-wh-rim:010%10
    {
        type            wall;
        nFaces          340;
        startFace       1039593;
    }
    motorBike_fr-wh-rim:011%11
    {
        type            wall;
        nFaces          473;
        startFace       1039933;
    }
    motorBike_fr-wh-brake-disk:012%12
    {
        type            wall;
        nFaces          54;
        startFace       1040406;
    }
    motorBike_frame:016-shadow%13
    {
        type            wall;
        nFaces          98;
        startFace       1040460;
    }
    motorBike_rear-susp:014%14
    {
        type            wall;
        nFaces          847;
        startFace       1040558;
    }
    motorBike_rear-susp:014-shadow%15
    {
        type            wall;
        nFaces          462;
        startFace       1041405;
    }
    motorBike_frame:016%16
    {
        type            wall;
        nFaces          64;
        startFace       1041867;
    }
    motorBike_rr-wh-rim:005-shadow%17
    {
        type            wall;
        nFaces          70;
        startFace       1041931;
    }
    motorBike_rr-wh-chain-hub:022%22
    {
        type            wall;
        nFaces          141;
        startFace       1042001;
    }
    motorBike_rearseat%24
    {
        type            wall;
        nFaces          430;
        startFace       1042142;
    }
    motorBike_frt-fairing%25
    {
        type            wall;
        nFaces          626;
        startFace       1042572;
    }
    motorBike_windshield%26
    {
        type            wall;
        nFaces          379;
        startFace       1043198;
    }
    motorBike_headlights%27
    {
        type            wall;
        nFaces          161;
        startFace       1043577;
    }
    motorBike_driversseat%28
    {
        type            wall;
        nFaces          368;
        startFace       1043738;
    }
    motorBike_rear-body%29
    {
        type            wall;
        nFaces          2077;
        startFace       1044106;
    }
    motorBike_fuel-tank%30
    {
        type            wall;
        nFaces          912;
        startFace       1046183;
    }
    motorBike_exhaust%31
    {
        type            wall;
        nFaces          2392;
        startFace       1047095;
    }
    motorBike_rr-wh-rim%32
    {
        type            wall;
        nFaces          1430;
        startFace       1049487;
    }
    motorBike_fr-mud-guard%33
    {
        type            wall;
        nFaces          634;
        startFace       1050917;
    }
    motorBike_fr-wh-rim%34
    {
        type            wall;
        nFaces          591;
        startFace       1051551;
    }
    motorBike_fr-wh-brake-disk%35
    {
        type            wall;
        nFaces          426;
        startFace       1052142;
    }
    motorBike_fr-brake-caliper%36
    {
        type            wall;
        nFaces          164;
        startFace       1052568;
    }
    motorBike_fr-wh-tyre%37
    {
        type            wall;
        nFaces          1116;
        startFace       1052732;
    }
    motorBike_hbars%38
    {
        type            wall;
        nFaces          535;
        startFace       1053848;
    }
    motorBike_fr-forks%39
    {
        type            wall;
        nFaces          1140;
        startFace       1054383;
    }
    motorBike_chain%40
    {
        type            wall;
        nFaces          474;
        startFace       1055523;
    }
    motorBike_rr-wh-tyre%41
    {
        type            wall;
        nFaces          1787;
        startFace       1055997;
    }
    motorBike_square-dial%42
    {
        type            wall;
        nFaces          6;
        startFace       1057784;
    }
    motorBike_round-dial%43
    {
        type            wall;
        nFaces          17;
        startFace       1057790;
    }
    motorBike_dial-holder%44
    {
        type            wall;
        nFaces          87;
        startFace       1057807;
    }
    motorBike_rear-susp%45
    {
        type            wall;
        nFaces          1786;
        startFace       1057894;
    }
    motorBike_rear-brake-lights%46
    {
        type            wall;
        nFaces          53;
        startFace       1059680;
    }
    motorBike_rear-light-bracket%47
    {
        type            wall;
        nFaces          163;
        startFace       1059733;
    }
    motorBike_frame%48
    {
        type            wall;
        nFaces          2040;
        startFace       1059896;
    }
    motorBike_rear-mud-guard%49
    {
        type            wall;
        nFaces          660;
        startFace       1061936;
    }
    motorBike_rear-susp-spring-damp%50
    {
        type            wall;
        nFaces          107;
        startFace       1062596;
    }
    motorBike_fairing-inner-plate%51
    {
        type            wall;
        nFaces          445;
        startFace       1062703;
    }
    motorBike_clutch-housing%52
    {
        type            wall;
        nFaces          970;
        startFace       1063148;
    }
    motorBike_radiator%53
    {
        type            wall;
        nFaces          40;
        startFace       1064118;
    }
    motorBike_water-pipe%54
    {
        type            wall;
        nFaces          104;
        startFace       1064158;
    }
    motorBike_water-pump%55
    {
        type            wall;
        nFaces          74;
        startFace       1064262;
    }
    motorBike_engine%56
    {
        type            wall;
        nFaces          2389;
        startFace       1064336;
    }
    motorBike_rear-shock-link%57
    {
        type            wall;
        nFaces          25;
        startFace       1066725;
    }
    motorBike_rear-brake-fluid-pot-bracket%58
    {
        type            wall;
        nFaces          46;
        startFace       1066750;
    }
    motorBike_rear-brake-fluid-pot%59
    {
        type            wall;
        nFaces          53;
        startFace       1066796;
    }
    motorBike_footpeg%60
    {
        type            wall;
        nFaces          86;
        startFace       1066849;
    }
    motorBike_rr-wh-chain-hub%61
    {
        type            wall;
        nFaces          122;
        startFace       1066935;
    }
    motorBike_rear-brake-caliper%62
    {
        type            wall;
        nFaces          142;
        startFace       1067057;
    }
    motorBike_rider-helmet%65
    {
        type            wall;
        nFaces          583;
        startFace       1067199;
    }
    motorBike_rider-visor%66
    {
        type            wall;
        nFaces          95;
        startFace       1067782;
    }
    motorBike_rider-boots%67
    {
        type            wall;
        nFaces          1025;
        startFace       1067877;
    }
    motorBike_rider-gloves%68
    {
        type            wall;
        nFaces          319;
        startFace       1068902;
    }
    motorBike_rider-body%69
    {
        type            wall;
        nFaces          4555;
        startFace       1069221;
    }
    motorBike_frame:0%70
    {
        type            wall;
        nFaces          37;
        startFace       1073776;
    }
    motorBike_frt-fairing:001-shadow%74
    {
        type            wall;
        nFaces          3329;
        startFace       1073813;
    }
    motorBike_windshield-shadow%75
    {
        type            wall;
        nFaces          237;
        startFace       1077142;
    }
    motorBike_fr-mud-guard-shadow%81
    {
        type            wall;
        nFaces          348;
        startFace       1077379;
    }
    motorBike_fr-wh-brake-disk-shadow%83
    {
        type            wall;
        nFaces          187;
        startFace       1077727;
    }
    motorBike_rear-mud-guard-shadow%84
    {
        type            wall;
        nFaces          394;
        startFace       1077914;
    }
    motorBike_rear-susp-spring-damp-shadow%85
    {
        type            wall;
        nFaces          41;
        startFace       1078308;
    }
    motorBike_radiator-shadow%86
    {
        type            wall;
        nFaces          20;
        startFace       1078349;
    }
    motorBike_rear-shock-link-shadow%87
    {
        type            wall;
        nFaces          10;
        startFace       1078369;
    }
    motorBike_rear-brake-fluid-pot-bracket-shadow%88
    {
        type            wall;
        nFaces          20;
        startFace       1078379;
    }
    motorBike_rr-wh-chain-hub-shadow%89
    {
        type            wall;
        nFaces          53;
        startFace       1078399;
    }
)

// ************************************************************************* //
