/*--------------------------------*- C++ -*----------------------------------*\
| =========                 |                                                 |
| \\      /  F ield         | OpenFOAM: The Open Source CFD Toolbox           |
|  \\    /   O peration     | Version:  dev                                   |
|   \\  /    A nd           | Web:      www.OpenFOAM.com                      |
|    \\/     M anipulation  |                                                 |
\*---------------------------------------------------------------------------*/
FoamFile
{
    version     2.0;
    format      ascii;
    class       dictionary;
    object      createPatchDict;
}
// * * * * * * * * * * * * * * * * * * * * * * * * * * * * * * * * * * * * * //

// Tolerance used in matching faces. Absolute tolerance is span of
// face times this factor. To load incorrectly matches meshes set this
// to a higher value.
matchTolerance 1e-3;

// Do a synchronisation of coupled points after creation of any patches.
pointSync false;

// Patches to create.
patchInfo
(
    // none
);

// ************************************************************************* //
