/*--------------------------------*- C++ -*----------------------------------*\
| =========                 |                                                 |
| \\      /  F ield         | OpenFOAM: The Open Source CFD Toolbox           |
|  \\    /   O peration     | Version:  v2112                                 |
|   \\  /    A nd           | Website:  www.openfoam.com                      |
|    \\/     M anipulation  |                                                 |
\*---------------------------------------------------------------------------*/
FoamFile
{
    version     2.0;
    format      ascii;
    class       dictionary;
    object      transportProperties;
}
// * * * * * * * * * * * * * * * * * * * * * * * * * * * * * * * * * * * * * //

DT              1;

transportModel  Newtonian;

nu              1e-05;

CrossPowerLawCoeffs
{
    nu0         1e-06;
    nuInf       1e-06;
    m           1;
    n           1;
}

BirdCarreauCoeffs
{
    nu0         1e-06;
    nuInf       1e-06;
    k           0;
    n           1;
}


// ************************************************************************* //
