/*--------------------------------*- C++ -*----------------------------------*\
| =========                 |                                                 |
| \\      /  F ield         | OpenFOAM: The Open Source CFD Toolbox           |
|  \\    /   O peration     | Version:  plus                                  |  
|   \\  /    A nd           | Web:      www.OpenFOAM.com                      |
|    \\/     M anipulation  |                                                 |
\*---------------------------------------------------------------------------*/
FoamFile
{
    version     2.0;
    format      ascii;
    class       dictionary;
    object      minMaxMagnitude;
}
// * * * * * * * * * * * * * * * * * * * * * * * * * * * * * * * * * * * * * //

minMaxMagnitude
{
    fields ( U p );

    #includeEtc "caseDicts/postProcessing/minMax/fieldMinMax.cfg"
}

// ************************************************************************* //
