/*--------------------------------*- C++ -*----------------------------------*\
| =========                 |                                                 |
| \\      /  F ield         | OpenFOAM: The Open Source CFD Toolbox           |
|  \\    /   O peration     | Version:  v1806                                 |
|   \\  /    A nd           | Web:      www.OpenFOAM.com                      |
|    \\/     M anipulation  |                                                 |
\*---------------------------------------------------------------------------*/
FoamFile
{
    version     2.0;
    format      ascii;
    class       dictionary;
    object      setFieldsDict;
}
// * * * * * * * * * * * * * * * * * * * * * * * * * * * * * * * * * * * * * //

defaultFieldValues
(
    volScalarFieldValue alpha.gas   1
    volScalarFieldValue alpha.liquid 0
);

regions
(
    boxToCell
    {
        box (0 0 0) (1 0.05 1);
        fieldValues
        (
            volScalarFieldValue alpha.liquid 1
            volScalarFieldValue alpha.gas    0
        );
    }
);

// ************************************************************************* //
