/*--------------------------------*- C++ -*----------------------------------*\
| =========                 |                                                 |
| \\      /  F ield         | OpenFOAM: The Open Source CFD Toolbox           |
|  \\    /   O peration     | Version:  splitCyclic                           |
|   \\  /    A nd           | Web:      www.OpenFOAM.org                      |
|    \\/     M anipulation  |                                                 |
\*---------------------------------------------------------------------------*/
FoamFile
{
    version     2.0;
    format      ascii;
    class       polyBoundaryMesh;
    location    "constant/polyMesh";
    object      boundary;
}
// * * * * * * * * * * * * * * * * * * * * * * * * * * * * * * * * * * * * * //

6
(
    inlet
    {
        type            patch;
        nFaces          600;
        startFace       715675;
    }
    outlet
    {
        type            patch;
        nFaces          1140;
        startFace       716275;
    }
    upperWall
    {
        type            wall;
        nFaces          4460;
        startFace       717415;
    }
    lowerWall
    {
        type            wall;
        nFaces          5000;
        startFace       721875;
    }
    frontAndBack_half0
    {
        type            cyclic;
        nFaces          12225;
        startFace       726875;
        neighbourPatch  frontAndBack_half1;
    }
    frontAndBack_half1
    {
        type            cyclic;
        nFaces          12225;
        startFace       739100;
        neighbourPatch  frontAndBack_half0;
    }
)

// ************************************************************************* //
