/*---------------------------------------------------------------------------*\
| =========                 |                                                 |
| \\      /  F ield         | OpenFOAM: The Open Source CFD Toolbox           |
|  \\    /   O peration     | Version:  1.4                                   |
|   \\  /    A nd           | Web:      http://www.openfoam.org               |
|    \\/     M anipulation  |                                                 |
\*---------------------------------------------------------------------------*/

FoamFile
{
    version         2.0;
    format          ascii;

    root            "";
    case            "";
    instance        "";
    local           "";

    class           dictionary;
    object          fvSolution;
}

// * * * * * * * * * * * * * * * * * * * * * * * * * * * * * * * * * * * * * //

solvers
{
    p
    {
        solver           PCG;
        preconditioner   DIC;
        tolerance        1e-06;
        relTol           0;
    };

    U
    {
        solver           PBiCG;
        preconditioner   DILU;
        tolerance        1e-05;
        relTol           0;
    };
    cellDisplacement
    {
        solver          GAMG;
        tolerance       1e-8;
        relTol          0;
        smoother        GaussSeidel;
        cacheAgglomeration true;
        nCellsInCoarsestLevel 10;
        agglomerator    faceAreaPair;
        mergeLevels     1;
    };
    cellMotionU
    {
        solver           PCG;
        preconditioner   DIC;
        tolerance        1e-08;
        relTol           0;
    };
    cellMotionUz
    {
        solver           PCG;
        preconditioner   DIC;
        tolerance        1e-08;
        relTol           0;
    };
}

//PISO
//{
//    nCorrectors     2;
//    nNonOrthogonalCorrectors 2;
//    pRefCell        0;
//    pRefValue       0;
//}
//
//relaxationFactors
//{
//}


// ************************************************************************* //
