/*---------------------------------------------------------------------------*\
| =========                 |                                                 |
| \\      /  F ield         | OpenFOAM: The Open Source CFD Toolbox           |
|  \\    /   O peration     | Version:  1.4                                   |
|   \\  /    A nd           | Web:      http://www.openfoam.org               |
|    \\/     M anipulation  |                                                 |
\*---------------------------------------------------------------------------*/

FoamFile
{
    version         2.0;
    format          ascii;

    root            "";
    case            "";
    instance        "";
    local           "";

    class           dictionary;
    object          fvSchemes;
}

// * * * * * * * * * * * * * * * * * * * * * * * * * * * * * * * * * * * * * //

ddtSchemes
{
    default Euler;
}

gradSchemes
{
    default         Gauss linear;
    grad(p)         Gauss linear;
}

divSchemes
{
    default         none;
    div(phi,U)      Gauss <>;
    div(phid,p)     Gauss <>;
    div(phiU,p)     Gauss linear;
    div(phi,k)      Gauss <>;
    div(phi,epsilon) Gauss <>;
    div(phi,R)      Gauss <>;
    div(phiXi,Xi)   Gauss <>;
    div(phiXi,Su)   Gauss <>;
    div(phiSt,b)    Gauss <>;
    div(phi,ft_b_h_hu) Gauss multivariateSelection 
    {
        fu              <>;
        ft              <>;
        b               <>;
        h               <>;
        hu              <>;
    };
    div(R)          Gauss linear;
    div(U)          Gauss linear;
    div((Su*grad(b))) Gauss linear;
    div((U+((Su*Xi)*grad(b)))) Gauss linear;
    div((muEff*dev2(grad(U).T()))) Gauss linear;
}

laplacianSchemes
{
    default         none;
    laplacian(muEff,U) Gauss linear corrected;
    laplacian(DkEff,k) Gauss linear limited 0.5;
    laplacian(DepsilonEff,epsilon) Gauss linear limited 0.5;
    laplacian(DREff,R) Gauss linear limited 0.5;
    laplacian((rho*(1|A(U))),p) Gauss linear limited 0.5;
    laplacian(muEff,b) Gauss linear limited 0.5;
    laplacian(muEff,ft) Gauss linear limited 0.5;
    laplacian(alphaEff,h) Gauss linear limited 0.5;
    laplacian(alphaEff,hu) Gauss linear limited 0.5;
}

interpolationSchemes
{
    default         linear;
}

snGradSchemes
{
    default         limited 0.5;
}

fluxRequired
{
    default         no;
    p;
}


// ************************************************************************* //
