/*--------------------------------*- C++ -*----------------------------------*\
| =========                 |                                                 |
| \\      /  F ield         | OpenFOAM: The Open Source CFD Toolbox           |
|  \\    /   O peration     | Version:  v2112                                 |
|   \\  /    A nd           | Website:  www.openfoam.com                      |
|    \\/     M anipulation  |                                                 |
\*---------------------------------------------------------------------------*/
FoamFile
{
    version     2.0;
    format      ascii;
    class       volScalarField;
    object      p_rgh;
}
// * * * * * * * * * * * * * * * * * * * * * * * * * * * * * * * * * * * * * //

dimensions      [1 -1 -2 0 0 0 0];

internalField   uniform 101325;

boundaryField
{
    #includeEtc "caseDicts/setConstraintTypes"

    floor
    {
        type            fixedFluxPressure;
        gradient        uniform 0;
        value           uniform 101325;
    }

    ceiling
    {
        type            fixedFluxPressure;
        gradient        uniform 0;
        value           uniform 101325;
    }

    inlet
    {
        type            fixedFluxPressure;
        gradient        uniform 0;
        value           uniform 101325;
    }

    outlet
    {
        type            fixedValue;
        value           uniform 101325;
    }

    fixedWalls
    {
        type            empty;
    }
}


// ************************************************************************* //
