/*--------------------------------*- C++ -*----------------------------------*\
| =========                 |                                                 |
| \\      /  F ield         | OpenFOAM: The Open Source CFD Toolbox           |
|  \\    /   O peration     | Version:  dev                                   |
|   \\  /    A nd           | Web:      www.OpenFOAM.com                      |
|    \\/     M anipulation  |                                                 |
\*---------------------------------------------------------------------------*/
FoamFile
{
    version     2.0;
    format      ascii;
    class       dictionary;
    object      topoSetDict;
}

// * * * * * * * * * * * * * * * * * * * * * * * * * * * * * * * * * * * * * //

actions
(
    {
        name    z;
        type    cellSet;
        action  new;
        source  boxToCell;
        sourceInfo
        {
            box (-100000 -100000 50)(100000 100000 100000);
        }
    }

    {
        name    zf;
        type    faceSet;
        action  new;
        source  cellToFace;
        sourceInfo
        {
            set    z;
            option all;
        }
    }

    {
        name    z;
        type    cellSet;
        action  invert;
    }

    {
        name    zf;
        type    faceSet;
        action  subset;
        source  cellToFace;
        sourceInfo
        {
            set    z;
            option all;
        }
    }

    // ~~~~~~~~~~~~~~~~ //

    {
        name    y;
        type    cellSet;
        action  new;
        source  boxToCell;
        sourceInfo
        {
            box (-100000 0 -100000)(100000 100000 100000);
        }
    }

    {
        name    yf;
        type    faceSet;
        action  new;
        source  cellToFace;
        sourceInfo
        {
            set    y;
            option all;
        }
    }

    {
        name    y;
        type    cellSet;
        action  invert;
    }

    {
        name    yf;
        type    faceSet;
        action  subset;
        source  cellToFace;
        sourceInfo
        {
            set    y;
            option all;
        }
    }

    // ~~~~~~~~~~~~~~~~ //

    {
        name    x;
        type    cellSet;
        action  new;
        source  boxToCell;
        sourceInfo
        {
            box (0 -100000 -100000)(100000 100000 100000);
        }
    }

    {
        name    xf;
        type    faceSet;
        action  new;
        source  cellToFace;
        sourceInfo
        {
            set    x;
            option all;
        }
    }

    {
        name    x;
        type    cellSet;
        action  invert;
    }

    {
        name    xf;
        type    faceSet;
        action  subset;
        source  cellToFace;
        sourceInfo
        {
            set    x;
            option all;
        }
    }
);

// ************************************************************************* //
