/*--------------------------------*- C++ -*----------------------------------*\
| =========                 |                                                 |
| \\      /  F ield         | OpenFOAM: The Open Source CFD Toolbox           |
|  \\    /   O peration     | Version:  v2112                                 |
|   \\  /    A nd           | Website:  www.openfoam.com                      |
|    \\/     M anipulation  |                                                 |
\*---------------------------------------------------------------------------*/
FoamFile
{
    version     2.0;
    format      ascii;
    class       dictionary;
    object      controlDict;
}
// * * * * * * * * * * * * * * * * * * * * * * * * * * * * * * * * * * * * * //

libs            (overset fvMotionSolvers);

DebugSwitches
{
    overset                 0;
    dynamicOversetFvMesh    0;
    cellVolumeWeight        0;
}

application     overBuoyantPimpleDyMFoam;

startFrom       startTime;

startTime       0;

stopAt          endTime;

endTime         1.5;

deltaT          0.001;

writeControl    adjustable;

writeInterval   0.02;

purgeWrite      0;

writeFormat     ascii;

writePrecision  10;

writeCompression off;

timeFormat      general;

timePrecision   6;

runTimeModifiable true;

adjustTimeStep  yes;

maxCo          0.5;


// ************************************************************************* //
