/*--------------------------------*- C++ -*----------------------------------*\
| =========                 |                                                 |
| \\      /  F ield         | OpenFOAM: The Open Source CFD Toolbox           |
|  \\    /   O peration     | Version:  v2112                                 |
|   \\  /    A nd           | Website:  www.openfoam.com                      |
|    \\/     M anipulation  |                                                 |
\*---------------------------------------------------------------------------*/
FoamFile
{
    version     2.0;
    format      ascii;
    class       dictionary;
    object      fvSolution;
}
// * * * * * * * * * * * * * * * * * * * * * * * * * * * * * * * * * * * * * //

solvers
{
    cellDisplacement
    {
        solver          PCG;
        preconditioner  DIC;
        tolerance       1e-06;
        relTol          0;
        maxIter         100;
    }

    "(rho|h)"
    {
        solver          PBiCGStab;
        preconditioner  DILU;
        tolerance       1e-8;
        relTol          0.1;
    }

    "(rho|h)Final"
    {
        $rho;
        tolerance       1e-8;
        relTol          0;
    }

    p_rgh
    {
        solver          PBiCGStab;
        preconditioner  DILU;
        tolerance       1e-11;
        relTol          0.01;
    }

    p_rghFinal
    {
        $p_rgh;
        relTol          0;
    }

    pcorr
    {
        $p_rghFinal;
        preconditioner  DIC;
    }

    pcorrFinal
    {
        $pcorr;
        relTol          0;
    }

    "(U|k|epsilon)"
    {
        solver          smoothSolver;
        smoother        symGaussSeidel;
        tolerance       1e-6;
        relTol          0;
    }

    "(U|k|epsilon)Final"
    {
        $U;
        tolerance       1e-6;
        relTol          0;
    }
}

PIMPLE
{
    momentumPredictor   true;
    correctPhi          false;
    checkMeshCourantNo  yes;
    nOuterCorrectors    1;
    nCorrectors         4;
    nNonOrthogonalCorrectors 0;
    ddtCorr             true;
    pRefCell            0;
    pRefValue           1e5;
}

relaxationFactors
{
   fields
   {
   }
   equations
   {
       ".*"             1;
   }
}


// ************************************************************************* //
