/*--------------------------------*- C++ -*----------------------------------*\
| =========                 |                                                 |
| \\      /  F ield         | OpenFOAM: The Open Source CFD Toolbox           |
|  \\    /   O peration     | Version:  v1806                                 |
|   \\  /    A nd           | Web:      www.OpenFOAM.com                      |
|    \\/     M anipulation  |                                                 |
\*---------------------------------------------------------------------------*/
FoamFile
{
    version     2.0;
    format      ascii;
    class       volScalarField;
    object      k;
}
// * * * * * * * * * * * * * * * * * * * * * * * * * * * * * * * * * * * * * //

#include        "include/initialConditions"

dimensions      [ 0 2 -2 0 0 0 0 ];

internalField   uniform $turbulentKE;

boundaryField
{
    #includeEtc "caseDicts/setConstraintTypes"

    wall
    {
        type            kqRWallFunction;
        value           uniform 0;
    }

    inlet
    {
        type            turbulentIntensityKineticEnergyInlet;
        intensity       0.05;       // 5% turbulent intensity
        value           $internalField;
    }

    outlet
    {
       type             inletOutlet;
       inletValue       $internalField;
       value            $internalField;
    }

    #include "include/frontBackTopBottomfreePatches"
}

// ************************************************************************* //
