/*--------------------------------*- C++ -*----------------------------------*\
| =========                 |                                                 |
| \\      /  F ield         | OpenFOAM: The Open Source CFD Toolbox           |
|  \\    /   O peration     | Version:  1.4.1                                 |
|   \\  /    A nd           | Web:      http://www.openfoam.org               |
|    \\/     M anipulation  |                                                 |
\*---------------------------------------------------------------------------*/

FoamFile
{
    version 2.0;
    format ascii;

    root "/home/dm2/henry/OpenFOAM/OpenFOAM-1.4.1/tutorials/financialFoam";
    case "europeanCall";
    instance "constant";
    local "polyMesh";

    class polyBoundaryMesh;
    object boundary;
}

// * * * * * * * * * * * * * * * * * * * * * * * * * * * * * * * * * * * * * //

3
(
lowValue
{
    type patch;
    physicalType limitValue;
    nFaces 1;
    startFace 499;
}

highValue
{
    type patch;
    physicalType limitGradient;
    nFaces 1;
    startFace 500;
}

defaultFaces
{
    type empty;
    nFaces 2000;
    startFace 501;
}
)

// ************************************************************************* //
