/*--------------------------------*- C++ -*----------------------------------*\
| =========                 |                                                 |
| \\      /  F ield         | OpenFOAM: The Open Source CFD Toolbox           |
|  \\    /   O peration     | Version:  dev                                   |
|   \\  /    A nd           | Web:      www.OpenFOAM.org                      |
|    \\/     M anipulation  |                                                 |
\*---------------------------------------------------------------------------*/
FoamFile
{
    version     2.0;
    format      ascii;
    class       dictionary;
    location    "constant";
    object      sourcesProperties;
}
// * * * * * * * * * * * * * * * * * * * * * * * * * * * * * * * * * * * * * //

massSource1
{
    type            scalarSemiImplicitSource;
    active          true;
    timeStart       0.2;
    duration        2.0;
    selectionMode   points;
    points
    (
        (2.75 0.5 0)
    );

    scalarSemiImplicitSourceCoeffs
    {
        volumeMode      absolute;
        injectionRateSuSp
        {
            rho         (1e-4 0); // kg/s
            H2O         (1e-4 0); // kg/s
        }
    }
}


momentumSource1
{
    type            vectorSemiImplicitSource;
    active          true;
    timeStart       0.2;
    duration        2.0;
    selectionMode   points;
    points
    (
        (2.75 0.5 0)
    );

    vectorSemiImplicitSourceCoeffs
    {
        volumeMode      absolute;
        injectionRateSuSp
        {
            U           ((0 0.005 0) 0);
        }
    }
}


energySource1
{
    type            scalarSemiImplicitSource;
    active          true;
    timeStart       0.2;
    duration        2.0;
    selectionMode   points;
    points
    (
        (2.75 0.5 0)
    );

    scalarSemiImplicitSourceCoeffs
    {
        volumeMode      absolute;
        injectionRateSuSp
        {
            h           (10 0);
        }
    }
}


// ************************************************************************* //
