/*--------------------------------*- C++ -*----------------------------------*\
| =========                 |                                                 |
| \\      /  F ield         | OpenFOAM: The Open Source CFD Toolbox           |
|  \\    /   O peration     | Version:  v1806                                 |
|   \\  /    A nd           | Web:      www.OpenFOAM.com                      |
|    \\/     M anipulation  |                                                 |
\*---------------------------------------------------------------------------*/
FoamFile
{
    version     2.0;
    format      ascii;
    class       dictionary;
    object      blockMeshDict;
}

// * * * * * * * * * * * * * * * * * * * * * * * * * * * * * * * * * * * * * //

scale   1;

vertices
(
    (-0.5 -0.5 0)
    (0.5 -0.5 0)
    (0.5  0.5 0)
    (-0.5  0.5 0)
    (-0.5 -0.5 8)
    (0.5 -0.5 8)
    (0.5  0.5 8)
    (-0.5  0.5 8)
);

blocks
(
    hex (0 1 2 3 4 5 6 7) (2 2 8) simpleGrading (1 1 1)
);

edges
(
);

boundary
(
    sides
    {
        type patch;
        faces
        (
            (2 6 5 1)
            (0 4 7 3)
            (3 7 6 2)
            (1 5 4 0)
        );
    }
    floor
    {
        type wall;
        faces
        (
            (0 3 2 1)
        );
    }
    top
    {
        type patch;
        faces
        (
            (4 5 6 7)
        );
    }
);

// ************************************************************************* //
