/*--------------------------------*- C++ -*----------------------------------*\
| =========                 |                                                 |
| \\      /  F ield         | OpenFOAM: The Open Source CFD Toolbox           |
|  \\    /   O peration     | Version:  v1806                                 |
|   \\  /    A nd           | Web:      www.OpenFOAM.com                      |
|    \\/     M anipulation  |                                                 |
\*---------------------------------------------------------------------------*/

FoamFile
{
    version     2.0;
    format      ascii;
    class       dictionary;
    location    "constant";
    object      radiationProperties;
}
// * * * * * * * * * * * * * * * * * * * * * * * * * * * * * * * * * * * * * //

radiationModel  opaqueSolid;

absorptionEmissionModel greyMeanSolidAbsorptionEmission;

greyMeanSolidAbsorptionEmissionCoeffs
{
    PMMA
    {
        absorptivity    0.17;
        emissivity      0.17;
    }
}

scatterModel    none;
transmissivityModel none;

// ************************************************************************* //
