/*--------------------------------*- C++ -*----------------------------------*\
| =========                 |                                                 |
| \\      /  F ield         | OpenFOAM: The Open Source CFD Toolbox           |
|  \\    /   O peration     | Version:  1.6                                   |
|   \\  /    A nd           | Web:      www.OpenFOAM.org                      |
|    \\/     M anipulation  |                                                 |
\*---------------------------------------------------------------------------*/
FoamFile
{
    version     2.0;
    format      ascii;
    class       volVectorField;
    location    "0/region0_to_wallFilmRegion_masterRegion";
    object      USpf;
}
// * * * * * * * * * * * * * * * * * * * * * * * * * * * * * * * * * * * * * //

dimensions      [1 -1 -2 0 0 0 0]; // kg.m/s/(m2.s)

internalField   uniform  (0 0 0);

boundaryField
{
    // cyclic boundaries between film patches
    "(cube[0-9][0-9]_side[0-9]_cube[0-9][0-9]_side[0-9])"
    {
        type            cyclic;
    }

    // top film surface
    "(.*top)"
    {
        type            zeroGradient;
    }

    // mapped boundaries
    "(region0_to.*)"
    {
        type            directMappedFixedPushedInternalValue;
        average         (0 0 0);
        setAverage      no;
        value           uniform (0 0 0);
    }

    // floor sides
    floor_side
    {
        type            zeroGradient;
    }
}

// ************************************************************************* //
