/*--------------------------------*- C++ -*----------------------------------*\
| =========                 |                                                 |
| \\      /  F ield         | OpenFOAM: The Open Source CFD Toolbox           |
|  \\    /   O peration     | Version:  v1906                                 |
|   \\  /    A nd           | Web:      www.OpenFOAM.com                      |
|    \\/     M anipulation  |                                                 |
\*---------------------------------------------------------------------------*/
FoamFile
{
    version     2.0;
    format      ascii;
    class       dictionary;
    object      dynamicMeshDict;
}
// * * * * * * * * * * * * * * * * * * * * * * * * * * * * * * * * * * * * * //

solver volumetricBSplinesMotionSolver;

volumetricBSplinesMotionSolverCoeffs
{
    controlBoxes (duct);
    duct
    {
        name    duct;
        type    cartesian;
        nCPsU   9;
        nCPsV   5;
        nCPsW   3;
        degreeU 3;
        degreeV 3;
        degreeW 2;

        controlPointsDefinition axisAligned;
        lowerCpBounds           (-1.1 -0.21 -0.05);
        upperCpBounds           ( 1.1  0.39  0.15);

        confineX1movement false;
        confineX2movement false;
        confineX3movement true;
        confineBoundaryControlPoints false;

        boundUMinCPs ( (true true true) (true true true) );
        boundUMaxCPs ( (true true true) (true true true) );
        boundWMinCPs ( (true true true) );
        boundWMaxCPs ( (true true true) );
    }
}

// ************************************************************************* //
