/*--------------------------------*- C++ -*----------------------------------*\
| =========                 |                                                 |
| \\      /  F ield         | OpenFOAM: The Open Source CFD Toolbox           |
|  \\    /   O peration     | Version:  dev                                   |
|   \\  /    A nd           | Web:      www.OpenFOAM.com                      |
|    \\/     M anipulation  |                                                 |
\*---------------------------------------------------------------------------*/
FoamFile
{
    version     2.0;
    format      ascii;
    class       dictionary;
    location    "constant";
    object      SurfaceFilmProperties;
}
// * * * * * * * * * * * * * * * * * * * * * * * * * * * * * * * * * * * * * //

//surfaceFilmModel kinematicSingleLayer;
surfaceFilmModel thermoSingleLayer;

filmRegionName  wallFilmRegion;

active          true;

kinematicSingleLayerCoeffs
{
    thermoModel constant;

    Cf          0.005;

    rho0        rho0 [1 -3 0 0 0] 1000;
    mu0         mu0 [1 -1 -1 0 0] 1e-3;
    sigma0      sigma0 [1 0 -2 0 0] 0.07;

    injectionModel remove; // none; // cloudInjection;
}


thermoSingleLayerCoeffs
{
    thermoModel constant;
    liquid      H2O;

    Cf          0.005;

    rho0        rho0 [1 -3 0 0 0] 1000;
    mu0         mu0 [1 -1 -1 0 0] 1e-3;
    sigma0      sigma0 [1 0 -2 0 0] 0.07;
    Cp0         Cp0 [0 2 -2 -1 0] 4187;
    kappa0      kappa0 [1 1 -3 -1 0] 0.58;

    injectionModel cloudInjection; // remove; // none; // cloudInjection;

    phaseChangeModel none;

    cloudInjectionCoeffs
    {
        cloudName    reactingCloud1;

        deltaStable  0;

        particlesPerParcel 100.0;

        parcelDistribution
        {
            pdfType         RosinRammler;
            RosinRammlerDistribution
            {
                minValue        5e-04;
                maxValue        0.0012;
                d               7.5e-05;
                n               0.5;
            }
        }
    }

    upperSurfaceModels
    {
        heatTransferModel constant;
        constantCoeffs
        {
            c0              1e-8;
        }
    }

    lowerSurfaceModels
    {
        heatTransferModel constant;
        constantCoeffs
        {
            c0              1e-8;
        }
    }
}

