/*--------------------------------*- C++ -*----------------------------------*\
| =========                 |                                                 |
| \\      /  F ield         | OpenFOAM: The Open Source CFD Toolbox           |
|  \\    /   O peration     | Version:  v1806                                 |
|   \\  /    A nd           | Web:      www.OpenFOAM.com                      |
|    \\/     M anipulation  |                                                 |
\*---------------------------------------------------------------------------*/
FoamFile
{
    version     2.0;
    format      ascii;
    class       dictionary;
    object      blockMeshDict;
}
// * * * * * * * * * * * * * * * * * * * * * * * * * * * * * * * * * * * * * //

scale   1;

vertices
(
    ( 0   0   -1)
    ( 40  0   -1)
    ( 40  40  -1)
    ( 0   40  -1)
    ( 0   0   60)
    ( 40  0   60)
    ( 40  40  60)
    ( 0   40  60)
);

blocks
(
    hex (0 1 2 3 4 5 6 7) (30 30 45) simpleGrading (1 1 1)
);

edges
(
);

boundary
(
    maxY
    {
        type patch;
        faces
        (
            (3 7 6 2)
        );
    }
    minX
    {
        type patch;
        faces
        (
            (0 4 7 3)
        );
    }
    maxX
    {
        type patch;
        faces
        (
            (2 6 5 1)
        );
    }
    minY
    {
        type patch;
        faces
        (
            (1 5 4 0)
        );
    }
    minZ
    {
        type wall;
        faces
        (
            (0 3 2 1)
        );
    }
    maxZ
    {
        type patch;
        faces
        (
            (4 5 6 7)
        );
    }
);

mergePatchPairs
(
);

// ************************************************************************* //
