/*--------------------------------*- C++ -*----------------------------------*\
| =========                 |                                                 |
| \\      /  F ield         | OpenFOAM: The Open Source CFD Toolbox           |
|  \\    /   O peration     | Version:  dev                                   |
|   \\  /    A nd           | Web:      http://www.openfoam.org               |
|    \\/     M anipulation  |                                                 |
\*---------------------------------------------------------------------------*/
FoamFile
{
    version     2.0;
    format      ascii;
    class       polyBoundaryMesh;
    object      boundary;
    location    "constant/polyMesh";
}
// * * * * * * * * * * * * * * * * * * * * * * * * * * * * * * * * * * * * * //

4
(
    lowerWall
    {
        type            wall;
        physicalType    wall;
        nFaces          1;
        startFace       79;
    }
    upperWall
    {
        type            wall;
        physicalType    wall;
        nFaces          1;
        startFace       80;
    }
    frontBack
    {
        type            cyclic;
        nFaces          160;
        startFace       81;
        featureCos      0.9;
    }
    defaultFaces
    {
        type            empty;
        nFaces          160;
        startFace       241;
    }
)

// ************************************************************************* //
