/*--------------------------------*- C++ -*----------------------------------*\
| =========                 |                                                 |
| \\      /  F ield         | OpenFOAM: The Open Source CFD Toolbox           |
|  \\    /   O peration     | Version:  v1806                                 |
|   \\  /    A nd           | Web:      www.OpenFOAM.com                      |
|    \\/     M anipulation  |                                                 |
\*---------------------------------------------------------------------------*/
FoamFile
{
    version     2.0;
    format      ascii;
    class       volScalarField;
    location    "0";
    object      epsilon;
}
// * * * * * * * * * * * * * * * * * * * * * * * * * * * * * * * * * * * * * //

dimensions      [0 2 -3 0 0 0 0];

internalField   uniform 100;

boundaryField
{
    inlet_air
    {
        type            turbulentMixingLengthDissipationRateInlet;
        mixingLength    0.005;
        value           $internalField;
    }
    inlet_fuel
    {
        type            turbulentMixingLengthDissipationRateInlet;
        mixingLength    0.001;
        value           $internalField;
    }
    outlet
    {
        type            inletOutlet;
        inletValue      $internalField;
        value           $internalField;
    }
    "inlet.*"
    {
        type            zeroGradient;
    }
    "wall.*"
    {
        type            epsilonWallFunction;
        value           $internalField;
    }
}

// ************************************************************************* //
