/*--------------------------------*- C++ -*----------------------------------*\
| =========                 |                                                 |
| \\      /  F ield         | OpenFOAM: The Open Source CFD Toolbox           |
|  \\    /   O peration     | Version:  v2112                                 |
|   \\  /    A nd           | Website:  www.openfoam.com                      |
|    \\/     M anipulation  |                                                 |
\*---------------------------------------------------------------------------*/
FoamFile
{
    version     2.0;
    format      ascii;
    class       volScalarField;
    object      omega;
}
// * * * * * * * * * * * * * * * * * * * * * * * * * * * * * * * * * * * * * //

dimensions      [0 0 -1 0 0 0 0];

internalField   uniform 0.12;

boundaryField
{
    frontAndBack
    {
        type            omegaWallFunction;
        value           uniform 0.12;
    }

    topAndBottom
    {
        type            omegaWallFunction;
        value           uniform 0.12;
    }

    hot
    {
        type            omegaWallFunction;
        value           uniform 0.12;
    }

    cold
    {
        type            omegaWallFunction;
        value           uniform 0.12;
    }
}


// ************************************************************************* //
