/*--------------------------------*- C++ -*----------------------------------*\
| =========                 |                                                 |
| \\      /  F ield         | OpenFOAM: The Open Source CFD Toolbox           |
|  \\    /   O peration     | Version:  v2112                                 |
|   \\  /    A nd           | Website:  www.openfoam.com                      |
|    \\/     M anipulation  |                                                 |
\*---------------------------------------------------------------------------*/
FoamFile
{
    version     2.0;
    format      ascii;
    class       volScalarField;
    object      T;
}
// * * * * * * * * * * * * * * * * * * * * * * * * * * * * * * * * * * * * * //

dimensions      [0 0 0 1 0 0 0];

internalField   uniform 293;

boundaryField
{
    frontAndBack
    {
        type            zeroGradient;
    }

    topAndBottom
    {
        type            zeroGradient;
    }

    hot
    {
        type            fixedValue;
        value           uniform 307.75; // 34.6 degC
    }

    cold
    {
        type            fixedValue;
        value           uniform 288.15; // 15 degC
    }
}


// ************************************************************************* //
