/*--------------------------------*- C++ -*----------------------------------*\
| =========                 |                                                 |
| \\      /  F ield         | OpenFOAM: The Open Source CFD Toolbox           |
|  \\    /   O peration     | Version:  v1806                                 |
|   \\  /    A nd           | Web:      www.OpenFOAM.com                      |
|    \\/     M anipulation  |                                                 |
\*---------------------------------------------------------------------------*/
FoamFile
{
    version     2.0;
    format      ascii;
    class       dictionary;
    location    "system";
    object      fvOptions;
}
// * * * * * * * * * * * * * * * * * * * * * * * * * * * * * * * * * * * * * //

heating
{
    type            jouleHeatingSource;
    active          true;

    jouleHeatingSourceCoeffs
    {
        anisotropicElectricalConductivity no;

        // Optionally specify sigma as a function of temperature
        //sigma           127599.8469;
        //
        //sigma           table
        //(
        //    (0      127599.8469)
        //    (1000   127599.8469)
        //);
    }
}


// ************************************************************************* //
