/*--------------------------------*- C++ -*----------------------------------*\
| =========                 |                                                 |
| \\      /  F ield         | OpenFOAM: The Open Source CFD Toolbox           |
|  \\    /   O peration     | Version:  v1806                                 |
|   \\  /    A nd           | Web:      www.OpenFOAM.com                      |
|    \\/     M anipulation  |                                                 |
\*---------------------------------------------------------------------------*/
FoamFile
{
    version         2;
    format          ascii;
    class           volScalarField;
    location        "0";
    object          O2;
}

dimensions      [ 0 0 0 0 0 0 0 ];

internalField   uniform 0.3;

boundaryField
{
    inletair
    {
        type            fixedValue;
        value           uniform 0.3;
    }
    outlet
    {
        type            inletOutlet;
        inletValue      uniform 0.3;
        value           uniform 0.3;
    }
    walls
    {
        type            zeroGradient;
    }
}


// ************************************************************************* //
