/*--------------------------------*- C++ -*----------------------------------*\
| =========                 |                                                 |
| \\      /  F ield         | OpenFOAM: The Open Source CFD Toolbox           |
|  \\    /   O peration     | Version:  v2112                                 |
|   \\  /    A nd           | Website:  www.openfoam.com                      |
|    \\/     M anipulation  |                                                 |
\*---------------------------------------------------------------------------*/
FoamFile
{
    version     2.0;
    format      ascii;
    class       volScalarField;
    object      N2;
}
// * * * * * * * * * * * * * * * * * * * * * * * * * * * * * * * * * * * * * //

#include        "include"

dimensions      [0 0 0 0 0 0 0];

internalField   uniform 1;

boundaryField
{
    inletSleeve
    {
        type            fixedValue;
        value           uniform $:sleeve.N2;
    }

    inletPipe
    {
        type            fixedValue;
        value           uniform $:pipe.N2;
    }

    outletSleeve
    {
        type            inletOutlet;
        inletValue      uniform $:sleeve.N2;
        value           uniform $:sleeve.N2;
    }

    outletPipe
    {
        type            inletOutlet;
        inletValue      uniform $:pipe.N2;
        value           uniform $:pipe.N2;
    }

    wall
    {
        type            zeroGradient;
    }

    membraneSleeve
    {
        type            semiPermeableBaffleMassFraction;
        value           uniform $:sleeve.N2;
    }

    membranePipe
    {
        type            semiPermeableBaffleMassFraction;
        value           uniform $:pipe.N2;
    }
}


// ************************************************************************* //
