/*--------------------------------*- C++ -*----------------------------------*\
| =========                 |                                                 |
| \\      /  F ield         | OpenFOAM: The Open Source CFD Toolbox           |
|  \\    /   O peration     | Version:  v2112                                 |
|   \\  /    A nd           | Website:  www.openfoam.com                      |
|    \\/     M anipulation  |                                                 |
\*---------------------------------------------------------------------------*/
FoamFile
{
    version     2.0;
    format      ascii;
    class       volScalarField;
    object      epsilon;
}
// * * * * * * * * * * * * * * * * * * * * * * * * * * * * * * * * * * * * * //

dimensions      [0 2 -3 0 0 0 0];

internalField   uniform 14.855;

boundaryField
{
    inlet
    {
        type            fixedValue;
        value           uniform 14.855;
    }

    outlet
    {
        type            inletOutlet;
        inletValue      uniform 14.855;
    }

    innerWall
    {
        type            epsilonWallFunction;
        value           uniform 14.855;
    }

    outerWall
    {
        type            epsilonWallFunction;
        value           uniform 14.855;
    }

    cyclic_half0
    {
        type            cyclic;
    }

    cyclic_half1
    {
        type            cyclic;
    }
}


// ************************************************************************* //
