/*--------------------------------*- C++ -*----------------------------------*\
| =========                 |                                                 |
| \\      /  F ield         | OpenFOAM: The Open Source CFD Toolbox           |
|  \\    /   O peration     | Version:  v1806                                 |
|   \\  /    A nd           | Web:      www.OpenFOAM.com                      |
|    \\/     M anipulation  |                                                 |
\*---------------------------------------------------------------------------*/
FoamFile
{
    version     2.0;
    format      ascii;
    class       dictionary;
    location    "constant";
    object      transportProperties;
}
// * * * * * * * * * * * * * * * * * * * * * * * * * * * * * * * * * * * * * //

transportModel  CrossPowerLaw;

CrossPowerLawCoeffs
{
    nu0         0.01;
    nuInf       10;
    m           0.4;
    n           3;
}

BirdCarreauCoeffs
{
    nu0         1e-06;
    nuInf       1e-06;
    k           0;
    n           1;
}

// ************************************************************************* //
