/*--------------------------------*- C++ -*----------------------------------*\
| =========                 |                                                 |
| \\      /  F ield         | OpenFOAM: The Open Source CFD Toolbox           |
|  \\    /   O peration     | Version:  v2112                                 |
|   \\  /    A nd           | Website:  www.openfoam.com                      |
|    \\/     M anipulation  |                                                 |
\*---------------------------------------------------------------------------*/
FoamFile
{
    version     2.0;
    format      ascii;
    class       dictionary;
    object      controlDict;
}
// * * * * * * * * * * * * * * * * * * * * * * * * * * * * * * * * * * * * * //

application     reactingParcelFoam;

startFrom       startTime;

startTime       0;

stopAt          endTime;

endTime         1; // please increase it to 10 or more, if need be.

deltaT          0.005;

writeControl    adjustable;

writeInterval   0.05;

purgeWrite      0;

writeFormat     ascii;

writePrecision  6;

writeCompression off;

timeFormat      general;

timePrecision   6;

runTimeModifiable yes;

adjustTimeStep  yes;

maxCo           0.9;

regionFaMaxCo   4; // max finiteArea Courant number

maxDeltaT       0.1;

functions
{
   faRegionCo
   {
        type        setTimeStepFaRegion;
   }
}


// ************************************************************************* //
