/*--------------------------------*- C++ -*----------------------------------*\
| =========                 |                                                 |
| \\      /  F ield         | OpenFOAM: The Open Source CFD Toolbox           |
|  \\    /   O peration     | Version:  v2112                                 |
|   \\  /    A nd           | Website:  www.openfoam.com                      |
|    \\/     M anipulation  |                                                 |
\*---------------------------------------------------------------------------*/
FoamFile
{
    version     2.0;
    format      ascii;
    class       dictionary;
    object      chemistryProperties;
}
// * * * * * * * * * * * * * * * * * * * * * * * * * * * * * * * * * * * * * //

chemistryType
{
    solver            ode;
}

chemistry       on;

initialChemicalTimeStep 1e-7;

EulerImplicitCoeffs
{
    cTauChem        10;
    equilibriumRateLimiter no;
}

odeCoeffs
{
    solver          seulex;
    absTol          1e-14;
    relTol          1e-1;
}


// ************************************************************************* //
