/*--------------------------------*- C++ -*----------------------------------*\
| =========                 |                                                 |
| \\      /  F ield         | OpenFOAM: The Open Source CFD Toolbox           |
|  \\    /   O peration     | Version:  plus-overset                          |
|   \\  /    A nd           | Web:      www.OpenFOAM.com                      |
|    \\/     M anipulation  |                                                 |
\*---------------------------------------------------------------------------*/
FoamFile
{
    version     2.0;
    format      ascii;
    class       volScalarField;
    object      p;
}
// * * * * * * * * * * * * * * * * * * * * * * * * * * * * * * * * * * * * * //

dimensions      [0 2 -2 0 0 0 0];

internalField   uniform 0;

boundaryField
{
    //- Set patchGroups for constraint patches
    #include "${WM_PROJECT_DIR}/etc/caseDicts/setConstraintTypes"

    "(walls|hole)"
    {
        type            zeroGradient;
    }

   outlet
   {
       type            fixedValue;
       value           uniform 0;
   }
   inlet
   {
       type            zeroGradient;
   }
//
//    right1
//    {
//        type            fixedValue;   //calculated;
//        value           $internalField;
//    }

    overset
    {
        type            overset;
    }
}

// ************************************************************************* //
