/*--------------------------------*- C++ -*----------------------------------*\
| =========                 |                                                 |
| \\      /  F ield         | OpenFOAM: The Open Source CFD Toolbox           |
|  \\    /   O peration     | Version:  plus                                  |
|   \\  /    A nd           | Web:      www.OpenFOAM.com                      |
|    \\/     M anipulation  |                                                 |
\*---------------------------------------------------------------------------*/
FoamFile
{
    version     2.0;
    format      ascii;
    class       dictionary;
    location    "constant";
    object      boundaryRadiationProperties;
}
// * * * * * * * * * * * * * * * * * * * * * * * * * * * * * * * * * * * * * //

base
{
    mode            lookup;
    emissivity      uniform 1.0;
    value           uniform 0;
}

outlet
{
    mode            lookup;
    emissivity      uniform 1.0;
    value           uniform 0;
}

sides
{
    mode            lookup;
    emissivity      uniform 1.0;
    value           uniform 0;
}

inlet
{
    mode            lookup;
    emissivity      uniform 1.0;
    value           uniform 0;
}
// ************************************************************************* //
