/*--------------------------------*- C++ -*----------------------------------*\
| =========                 |                                                 |
| \\      /  F ield         | OpenFOAM: The Open Source CFD Toolbox           |
|  \\    /   O peration     | Version:  v1806                                 |
|   \\  /    A nd           | Web:      www.OpenFOAM.com                      |
|    \\/     M anipulation  |                                                 |
\*---------------------------------------------------------------------------*/
FoamFile
{
    version     2.0;
    format      ascii;
    class       dictionary;
    location    "system";
    object      fvSolution;
}
// * * * * * * * * * * * * * * * * * * * * * * * * * * * * * * * * * * * * * //

solvers
{
    "(p|rho)"
    {
        solver          PCG;
        preconditioner  DIC;
        tolerance       1e-9;
        relTol          0.01;
        minIter         1;
    }

    "(p|rho)Final"
    {
        $p;
        relTol          0;
    }

    "(U|e|h)"
    {
        solver          smoothSolver;
        smoother        symGaussSeidel;
        tolerance       1e-9;
        relTol          0.01;
    }

    "(U|e|h)Final"
    {
        $U;
        relTol          0;
    }
}

PIMPLE
{
    momentumPredictor          yes;
    nOuterCorrectors           1;
    nCorrectors                2;
    nNonOrthogonalCorrectors   0;
}


// ************************************************************************* //
