/*--------------------------------*- C++ -*----------------------------------*\
| =========                 |                                                 |
| \\      /  F ield         | OpenFOAM: The Open Source CFD Toolbox           |
|  \\    /   O peration     | Version:  v2112                                 |
|   \\  /    A nd           | Website:  www.openfoam.com                      |
|    \\/     M anipulation  |                                                 |
\*---------------------------------------------------------------------------*/
FoamFile
{
    version     2.0;
    format      ascii;
    class       volScalarField;
    object      epsilon;
}
// * * * * * * * * * * * * * * * * * * * * * * * * * * * * * * * * * * * * * //

dimensions      [0 2 -3 0 0 0 0];

internalField   uniform 0.01;

boundaryField
{
    #include            "include/ABLConditions"

    inlet
    {
        type            atmBoundaryLayerInletEpsilon;
        #include        "include/ABLConditions"
        value           uniform 0;
    }

    ground
    {
        type            epsilonWallFunction;
        Cmu             $Cmu;
        kappa           $kappa;
        value           $internalField;
    }

    top
    {
        type            zeroGradient;
    }

    sides
    {
        type            symmetry;
    }

    outlet
    {
        type            inletOutlet;
        inletValue      $internalField;
        value           $internalField;
    }
}


// ************************************************************************* //
