/*--------------------------------*- C++ -*----------------------------------*\
| =========                 |                                                 |
| \\      /  F ield         | OpenFOAM: The Open Source CFD Toolbox           |
|  \\    /   O peration     | Version:  1.5                                   |
|   \\  /    A nd           | Web:      http://www.OpenFOAM.org               |
|    \\/     M anipulation  |                                                 |
\*---------------------------------------------------------------------------*/
FoamFile
{
    version     2.0;
    format      ascii;
    class       polyBoundaryMesh;
    object      boundary;
}
// * * * * * * * * * * * * * * * * * * * * * * * * * * * * * * * * * * * * * //

5
(
inlet           
{
    nFaces          30;
    startFace       27238;
    offset          ( 0.0495 0 0 );
    sampleMode      nearestCell;
    samplePatch     none;
}

outlet          
{
    type            patch;
    nFaces          57;
    startFace       27268;
}

upperWall       
{
    type            wall;
    nFaces          275;
    startFace       27325;
}

lowerWall       
{
    type            wall;
    nFaces          302;
    startFace       27600;
}

frontAndBack    
{
    type            empty;
    nFaces          27570;
    startFace       27902;
}

)

// ************************************************************************* //
