/*---------------------------------------------------------------------------*\
| =========                 |                                                 |
| \\      /  F ield         | OpenFOAM: The Open Source CFD Toolbox           |
|  \\    /   O peration     | Version:  1.4                                   |
|   \\  /    A nd           | Web:      http://www.openfoam.org               |
|    \\/     M anipulation  |                                                 |
\*---------------------------------------------------------------------------*/

FoamFile
{
    version         2.0;
    format          ascii;

    root            "";
    case            "";
    instance        "";
    local           "";

    class           dictionary;
    object          engineGeometry;
}

// * * * * * * * * * * * * * * * * * * * * * * * * * * * * * * * * * * * * * //

engineMesh      layered;

conRodLength    conRodLength [0 1 0 0 0 0 0] 0.147;

bore            bore [0 1 0 0 0 0 0] 0.092;

stroke          stroke [0 1 0 0 0 0 0] 0.08423;

clearance       clearance [0 1 0 0 0 0 0] 0.00115;

rpm             rpm [0 0 -1 0 0 0 0] 1500;

// ************************************************************************* //
