/*--------------------------------*- C++ -*----------------------------------*\
| =========                 |                                                 |
| \\      /  F ield         | OpenFOAM: The Open Source CFD Toolbox           |
|  \\    /   O peration     | Version:  dev                                   |
|   \\  /    A nd           | Web:      www.OpenFOAM.org                      |
|    \\/     M anipulation  |                                                 |
\*---------------------------------------------------------------------------*/
FoamFile
{
    version     2.0;
    format      ascii;
    class       dictionary;
    note        "mesh renumbering dictionary";
    object      renumberMeshDict;
}
// * * * * * * * * * * * * * * * * * * * * * * * * * * * * * * * * * * * * * //

method          CuthillMcKee;
//method          manual;
//method          random;
//method          spring;

manualCoeffs
{
    // In system directory: old to new labelIOList
    dataFile "cellMap";
}


springCoeffs
{
    // Maximum jump of cell indices. Is fraction of number of cells
    maxCo 0.1;

    // Limit the amount of movement; the fraction maxCo gets decreased
    // with every iteration
    freezeFraction 0.9;

    // Maximum number of iterations
    maxIter 1000;
}


// ************************************************************************* //
