/*--------------------------------*- C++ -*----------------------------------*\
| =========                 |                                                 |
| \\      /  F ield         | OpenFOAM: The Open Source CFD Toolbox           |
|  \\    /   O peration     | Version:  1.4.1                                 |
|   \\  /    A nd           | Web:      http://www.openfoam.org               |
|    \\/     M anipulation  |                                                 |
\*---------------------------------------------------------------------------*/

FoamFile
{
    version 2.0;
    format ascii;

    root "/home/dm2/henry/OpenFOAM/OpenFOAM-1.4.1/tutorials/twoPhaseEulerFoam";
    case "bed2";
    instance "constant";
    local "polyMesh";

    class polyBoundaryMesh;
    object boundary;
}

// * * * * * * * * * * * * * * * * * * * * * * * * * * * * * * * * * * * * * //

4
(
inlet
{
    type patch;
    nFaces 30;
    startFace 11770;
}

outlet
{
    type patch;
    nFaces 30;
    startFace 11800;
}

walls
{
    type wall;
    nFaces 400;
    startFace 11830;
}

frontAndBackPlanes
{
    type empty;
    nFaces 12000;
    startFace 12230;
}
)

// ************************************************************************* //
