/*---------------------------------------------------------------------------*\
| =========                 |                                                 |
| \\      /  F ield         | OpenFOAM: The Open Source CFD Toolbox           |
|  \\    /   O peration     | Version:  1.4                                   |
|   \\  /    A nd           | Web:      http://www.openfoam.org               |
|    \\/     M anipulation  |                                                 |
\*---------------------------------------------------------------------------*/

FoamFile
{
    version         2.0;
    format          ascii;

    root            "";
    case            "";
    instance        "";
    local           "";

    class           volScalarField;
    object          omega;
}

// * * * * * * * * * * * * * * * * * * * * * * * * * * * * * * * * * * * * * //


dimensions      [0 0 -1 0 0 0 0];

internalField   uniform 3.5;

boundaryField
{
    inlet
    {
        type            fixedValue;
        value           uniform 3.5;
    }

    outlet
    {
        type            zeroGradient;
    }

    innerWall
    {
        type            zeroGradient;
    }

    outerWall
    {
        type            zeroGradient;
    }

    cyclic
    {
        type            cyclic;
    }
}


// ************************************************************************* //
