/*---------------------------------------------------------------------------*\
| =========                 |                                                 |
| \\      /  F ield         | OpenFOAM: The Open Source CFD Toolbox           |
|  \\    /   O peration     | Version:  1.4                                   |
|   \\  /    A nd           | Web:      http://www.openfoam.org               |
|    \\/     M anipulation  |                                                 |
\*---------------------------------------------------------------------------*/

FoamFile
{
    version         2.0;
    format          ascii;

    root            "";
    case            "";
    instance        "";
    local           "";

    class           volVectorField;
    object          Urel;
}

// * * * * * * * * * * * * * * * * * * * * * * * * * * * * * * * * * * * * * //


dimensions      [0 1 -1 0 0 0 0];

internalField   uniform (0 0 0);

boundaryField
{
    inlet
    {
        type            SRFVelocity;
        inletValue      uniform (0 0 -10);
        relative        yes;
        value           uniform (0 0 0);
    }

    outlet
    {
        type            zeroGradient;
    }

    innerWall
    {
        type            fixedValue;
        value           uniform (0 0 0);
    }

    outerWall
    {
        type            SRFVelocity;
        inletValue      uniform (0 0 0);
        relative        yes;
        value           uniform (0 0 0);
    }

    cyclic
    {
        type            cyclic;
    }
}


// ************************************************************************* //
