/*--------------------------------*- C++ -*----------------------------------*\
| =========                 |                                                 |
| \\      /  F ield         | OpenFOAM: The Open Source CFD Toolbox           |
|  \\    /   O peration     | Version:  dev                                   |
|   \\  /    A nd           | Web:      www.OpenFOAM.com                      |
|    \\/     M anipulation  |                                                 |
\*---------------------------------------------------------------------------*/
FoamFile
{
    version     2.0;
    format      ascii;
    class       polyBoundaryMesh;
    location    "constant/polyMesh";
    object      boundary;
}
// * * * * * * * * * * * * * * * * * * * * * * * * * * * * * * * * * * * * * //

9
(
    maxY
    {
        type            empty;
        nFaces          0;
        startFace       61295;
    }
    minX
    {
        type            empty;
        nFaces          0;
        startFace       61295;
    }
    maxX
    {
        type            empty;
        nFaces          0;
        startFace       61295;
    }
    minY
    {
        type            empty;
        nFaces          0;
        startFace       61295;
    }
    ground
    {
        type            wall;
        nFaces          590;
        startFace       61295;
    }
    maxZ
    {
        type            empty;
        nFaces          0;
        startFace       61885;
    }
    igloo_region0
    {
        type            wall;
        nFaces          2260;
        startFace       61885;
    }
    twoFridgeFreezers_seal_0
    {
        type            wall;
        nFaces          1344;
        startFace       64145;
    }
    twoFridgeFreezers_herring_1
    {
        type            wall;
        nFaces          1116;
        startFace       65489;
    }
)

// ************************************************************************* //
