/*--------------------------------*- C++ -*----------------------------------*\
| =========                 |                                                 |
| \\      /  F ield         | OpenFOAM: The Open Source CFD Toolbox           |
|  \\    /   O peration     | Version:  dev                                   |
|   \\  /    A nd           | Web:      www.OpenFOAM.com                      |
|    \\/     M anipulation  |                                                 |
\*---------------------------------------------------------------------------*/
FoamFile
{
    version     2.0;
    format      binary;
    class       polyBoundaryMesh;
    location    "constant/polyMesh";
    object      boundary;
}
// * * * * * * * * * * * * * * * * * * * * * * * * * * * * * * * * * * * * * //

4
(
    inlet
    {
        type            patch;
        nFaces          51;
        startFace       651284;
    }
    outlet
    {
        type            patch;
        nFaces          51;
        startFace       651335;
    }
    walls
    {
        type            wall;
        nFaces          2216;
        startFace       651386;
    }
    frontBack
    {
        type            empty;
        nFaces          651180;
        startFace       653602;
    }
)

// ************************************************************************* //
