/*--------------------------------*- C++ -*----------------------------------*\
| =========                 |                                                 |
| \\      /  F ield         | OpenFOAM: The Open Source CFD Toolbox           |
|  \\    /   O peration     | Version:  v2112                                 |
|   \\  /    A nd           | Website:  www.openfoam.com                      |
|    \\/     M anipulation  |                                                 |
\*---------------------------------------------------------------------------*/
FoamFile
{
    version     2.0;
    format      ascii;
    class       dictionary;
    object      controlDict;
}
// * * * * * * * * * * * * * * * * * * * * * * * * * * * * * * * * * * * * * //

application     pisoFoam;

startFrom       latestTime;

startTime       0;

stopAt          endTime;

endTime         30.0;

deltaT          2e-3;

writeControl    timeStep;

writeInterval   50;

purgeWrite      3;

writeFormat     ascii;

writePrecision  8;

writeCompression off;

timeFormat      general;

timePrecision   8;

runTimeModifiable false;

adjustTimeStep  false;

// Allow 10% of time for initialisation before sampling
timeStart       #eval{ 0.1 * ${/endTime} };

functions
{
    fieldAverage1
    {
        type                fieldAverage;
        libs                (fieldFunctionObjects);
        writeControl        writeTime;
        timeStart           $/timeStart;

        fields
        (
            U
            {
                mean        on;
                prime2Mean  on;
                base        time;
            }
        );
    }
}


// ************************************************************************* //
