/*--------------------------------*- C++ -*----------------------------------*\
| =========                 |                                                 |
| \\      /  F ield         | OpenFOAM: The Open Source CFD Toolbox           |
|  \\    /   O peration     | Version:  1.4.1                                 |
|   \\  /    A nd           | Web:      http://www.openfoam.org               |
|    \\/     M anipulation  |                                                 |
\*---------------------------------------------------------------------------*/

FoamFile
{
    version 2.0;
    format ascii;

    root "/home/dm2/henry/OpenFOAM/OpenFOAM-1.4.1/tutorials/engineFoam";
    case "kivaTest";
    instance "constant";
    local "polyMesh";

    class polyBoundaryMesh;
    object boundary;
}

// * * * * * * * * * * * * * * * * * * * * * * * * * * * * * * * * * * * * * //

3
(
piston
{
    type wall;
    nFaces 1326;
    startFace 79522;
}

liner
{
    type wall;
    nFaces 2710;
    startFace 80848;
}

cylinderHead
{
    type wall;
    nFaces 2184;
    startFace 83558;
}
)

// ************************************************************************* //
