/*--------------------------------*- C++ -*----------------------------------*\
| =========                 |                                                 |
| \\      /  F ield         | OpenFOAM: The Open Source CFD Toolbox           |
|  \\    /   O peration     | Version:  v1806                                 |
|   \\  /    A nd           | Web:      www.OpenFOAM.com                      |
|    \\/     M anipulation  |                                                 |
\*---------------------------------------------------------------------------*/
FoamFile
{
    version     2.0;
    format      ascii;
    class       dictionary;
    object      createPatchDict;
}
// * * * * * * * * * * * * * * * * * * * * * * * * * * * * * * * * * * * * * //

pointSync   false;

outerSet
{
    patchInfo
    {
        type patch;
        inGroups (outer);
    }

    constructFrom set;
}


// Patches to create.
patches
(
    {
        name outerx;
        set  outerx;
        $outerSet;
    }

    {
        name outery;
        set  outery;
        $outerSet;
    }

    {
        name outerz;
        set  outerz;
        $outerSet;
    }
);

// ************************************************************************* //
