/*--------------------------------*- C++ -*----------------------------------*\
| =========                 |                                                 |
| \\      /  F ield         | OpenFOAM: The Open Source CFD Toolbox           |
|  \\    /   O peration     | Version:  v1806                                 |
|   \\  /    A nd           | Web:      www.OpenFOAM.com                      |
|    \\/     M anipulation  |                                                 |
\*---------------------------------------------------------------------------*/
FoamFile
{
    version     2.0;
    format      ascii;
    class       dictionary;
    object      topoSetDict;
}
// * * * * * * * * * * * * * * * * * * * * * * * * * * * * * * * * * * * * * //

actions
(
    // Outer cube
    {
        name    outer;
        type    cellSet;
        action  new;
        source  regionToCell;
        sourceInfo
        {
            insidePoints
            (
                (0.99 0.99 0.99)
            );
        }
    }

    {
        name    corner;
        type    cellSet;
        action  new;
        source  boxToCell;
        sourceInfo
        {
            box (-1 -1 -1)(0.5 0.5 0.5);
        }
    }

    {
        name    inner;
        type    cellSet;
        action  new;
        source  cellToCell;
        sourceInfo
        {
            set corner;
        }
    }

    {
        name    inner;
        type    cellSet;
        action  delete;
        source  cellToCell;
        sourceInfo
        {
            set outer;
        }
    }

    {
        name    outer;
        type    cellSet;
        action  delete;
        source  cellToCell;
        sourceInfo
        {
            set corner;
        }
    }

    {
        name    corner;
        type    cellSet;
        action  clear;
    }

    {
        name    final;
        type    cellSet;
        action  new;
        source  cellToCell;
        sourceInfo
        {
            set outer;
        }
    }
    {
        name    final;
        type    cellSet;
        action  add;
        source  cellToCell;
        sourceInfo
        {
            set inner;
        }
    }
);

// ************************************************************************* //
