/*--------------------------------*- C++ -*----------------------------------*\
| =========                 |                                                 |
| \\      /  F ield         | OpenFOAM: The Open Source CFD Toolbox           |
|  \\    /   O peration     | Version:  v1806                                 |
|   \\  /    A nd           | Web:      www.OpenFOAM.com                      |
|    \\/     M anipulation  |                                                 |
\*---------------------------------------------------------------------------*/
FoamFile
{
    version     2.0;
    format      ascii;
    class       volScalarField;
    location    "0";
    object      omega;
}
// * * * * * * * * * * * * * * * * * * * * * * * * * * * * * * * * * * * * * //

dimensions      [ 0 0 -1 0 0 0 0 ];

internalField   uniform 1;

boundaryField
{
    bottom
    {
        type            omegaWallFunction;
        value           $internalField;
    }

    top
    {
        type            inletOutlet;
        inletValue      $internalField;
        value           $internalField;
    }

    left
    {
        type            omegaWallFunction;
        value           $internalField;
    }

    right
    {
        type            omegaWallFunction;
        value           $internalField;
    }

    frontAndBack
    {
        type            empty;
    }
}


// ************************************************************************* //
