/*--------------------------------*- C++ -*----------------------------------*\
| =========                 |                                                 |
| \\      /  F ield         | OpenFOAM: The Open Source CFD Toolbox           |
|  \\    /   O peration     | Version:  v1912                                 |
|   \\  /    A nd           | Website:  www.openfoam.com                      |
|    \\/     M anipulation  |                                                 |
\*---------------------------------------------------------------------------*/
FoamFile
{
    version     2.0;
    format      ascii;
    class       dictionary;
    object      turbulenceProperties;
}
// * * * * * * * * * * * * * * * * * * * * * * * * * * * * * * * * * * * * * //

simulationType LES;

LES
{
    turbulence      on;

    LESModel        SpalartAllmarasIDDES;


    printCoeffs     on;

    delta           IDDESDelta;

    IDDESDeltaCoeffs
    {
        hmax           maxDeltaxyzCubeRoot;
        maxDeltaxyzCubeRootCoeffs
        {
        }
    }
}


// ************************************************************************* //
