/*--------------------------------*- C++ -*----------------------------------*\
| =========                 |                                                 |
| \\      /  F ield         | OpenFOAM: The Open Source CFD Toolbox           |
|  \\    /   O peration     | Version:  v2112                                 |
|   \\  /    A nd           | Website:  www.openfoam.com                      |
|    \\/     M anipulation  |                                                 |
\*---------------------------------------------------------------------------*/
FoamFile
{
    version     2.0;
    format      ascii;
    class       dictionary;
    object      dynamicMeshDict;
}
// * * * * * * * * * * * * * * * * * * * * * * * * * * * * * * * * * * * * * //

dynamicFvMesh   dynamicMotionSolverFvMesh;

solver          solidBody;

solidBodyCoeffs
{
    cellZone        inletChannel;

    solidBodyMotionFunction oscillatingLinearMotion;

    oscillatingLinearMotionCoeffs
    {
        amplitude       (0 0.5 0);
        omega           3.14; // rad/s  (.5 rps)
    }
}


// ************************************************************************* //
