/*--------------------------------*- C++ -*----------------------------------*\
| =========                 |                                                 |
| \\      /  F ield         | OpenFOAM: The Open Source CFD Toolbox           |
|  \\    /   O peration     | Version:  v2112                                 |
|   \\  /    A nd           | Website:  www.openfoam.com                      |
|    \\/     M anipulation  |                                                 |
\*---------------------------------------------------------------------------*/
FoamFile
{
    version     2.0;
    format      ascii;
    class       volScalarField;
    object      hTotal;
}
// * * * * * * * * * * * * * * * * * * * * * * * * * * * * * * * * * * * * * //

dimensions      [0 1 0 0 0 0 0];

internalField   uniform 0.01;

boundaryField
{
    sides
    {
        type            calculated;
        value           uniform 0.01;
    }

    inlet
    {
        type            calculated;
        value           uniform 0.01;
    }

    outlet
    {
        type            calculated;
        value           uniform 0.01;
    }

    frontAndBack
    {
        type            empty;
    }
}


// ************************************************************************* //
