/*--------------------------------*- C++ -*----------------------------------*\
| =========                 |                                                 |
| \\      /  F ield         | OpenFOAM: The Open Source CFD Toolbox           |
|  \\    /   O peration     | Version:  v2112                                 |
|   \\  /    A nd           | Website:  www.openfoam.com                      |
|    \\/     M anipulation  |                                                 |
\*---------------------------------------------------------------------------*/
FoamFile
{
    version     2.0;
    format      ascii;
    class       volScalarField;
    object      nut;
}
// * * * * * * * * * * * * * * * * * * * * * * * * * * * * * * * * * * * * * //

dimensions      [0 2 -1 0 0 0 0];

internalField   uniform 1e-5;

boundaryField
{
    inlet
    {
        type            calculated;
        value           $internalField;
    }

    "(window|fixedWall)"
    {
        type            nutUSpaldingWallFunction;
        value           $internalField;
    }

    box
    {
        type            calculated;
        value           $internalField;
    }
}


// ************************************************************************* //
