/*--------------------------------*- C++ -*----------------------------------*\
| =========                 |                                                 |
| \\      /  F ield         | OpenFOAM: The Open Source CFD Toolbox           |
|  \\    /   O peration     | Version:  v2112                                 |
|   \\  /    A nd           | Website:  www.openfoam.com                      |
|    \\/     M anipulation  |                                                 |
\*---------------------------------------------------------------------------*/
FoamFile
{
    version     2.0;
    format      ascii;
    class       volScalarField;
    object      IDefault;
}
// * * * * * * * * * * * * * * * * * * * * * * * * * * * * * * * * * * * * * //

dimensions      [ 1 0 -3 0 0 0 0 ];

internalField   uniform 0;

boundaryField
{
    maxY
    {
        type            wideBandDiffusiveRadiation;
        value           uniform 0;
    }

    minX
    {
        type            wideBandDiffusiveRadiation;
        value           uniform 0;
    }

    maxX
    {
        type            wideBandDiffusiveRadiation;
        value           uniform 0;
    }

    minY
    {
        type            wideBandDiffusiveRadiation;
        value           uniform 0;
    }

    maxZ
    {
        type            wideBandDiffusiveRadiation;
        value           uniform 0;
    }

    air_to_floor
    {
        type            wideBandDiffusiveRadiation;
        value           uniform 0;
    }

    air_to_solid
    {
        type            wideBandDiffusiveRadiation;
        value           uniform 0;
    }
}


// ************************************************************************* //
