/*--------------------------------*- C++ -*----------------------------------*\
| =========                 |                                                 |
| \\      /  F ield         | OpenFOAM: The Open Source CFD Toolbox           |
|  \\    /   O peration     | Version:  dev                                   |
|   \\  /    A nd           | Web:      www.OpenFOAM.com                      |
|    \\/     M anipulation  |                                                 |
\*---------------------------------------------------------------------------*/
FoamFile
{
    version     2.0;
    format      ascii;
    class       dictionary;
    location    "constant";
    object      SurfaceFilmProperties;
}
// * * * * * * * * * * * * * * * * * * * * * * * * * * * * * * * * * * * * * //

surfaceFilmModel kinematicSingleLayer;

filmRegionName  wallFilmRegion;

active          true;

kinematicSingleLayerCoeffs
{
    thermoModel constant;
    Cf          0.005;

    rho0        rho0 [1 -3 0 0 0] 1000;
    mu0         mu0 [1 -1 -1 0 0] 1e-3;
    sigma0      sigma0 [1 0 -2 0 0] 0.07;

    injectionModel none;
}

