/*--------------------------------*- C++ -*----------------------------------*\
| =========                 |                                                 |
| \\      /  F ield         | OpenFOAM: The Open Source CFD Toolbox           |
|  \\    /   O peration     | Version:  Any                                   |
|   \\  /    A nd           | Web:      www.OpenFOAM.com                      |
|    \\/     M anipulation  |                                                 |
\*---------------------------------------------------------------------------*/
FoamFile
{
    version     2.0;
    format      ascii;
    class       dictionary;
    object      testDict;
}
// * * * * * * * * * * * * * * * * * * * * * * * * * * * * * * * * * * * * * //

// values from outer-scope
begIter     0;
endIter     200;

writeInterval   #codeStream
{
    // values from inner-scope
    nDumps      5;

    codeInclude
    #{
        #include "fvCFD.H"
    #};

    codeOptions
    #{
        -I$(LIB_SRC)/finiteVolume/lnInclude
    #};

    code
    #{
        label interval = ($endIter - $begIter);
        label nDumps = $nDumps;
        os  << (interval / nDumps);
    #};
};


// play with cleanup
#remove begIter


// * * * * * * * * * * * * * * * * * * * * * * * * * * * * * * * * * * * * * //
