/*--------------------------------*- C++ -*----------------------------------*\
| =========                 |                                                 |
| \\      /  F ield         | OpenFOAM: The Open Source CFD Toolbox           |
|  \\    /   O peration     | Version:  v2112                                 |
|   \\  /    A nd           | Website:  www.openfoam.com                      |
|    \\/     M anipulation  |                                                 |
\*---------------------------------------------------------------------------*/
FoamFile
{
    version     2.0;
    format      ascii;
    class       dictionary;
    object      dictionary;
}
// * * * * * * * * * * * * * * * * * * * * * * * * * * * * * * * * * * * * * //

boundaryField
{
    Default_Boundary_Region
    {
        value $internalField;
        note "actually a noslip wall";
    }

    inlet_3  "a primitiveEntry squashes directory entry";
}

#inputMode  overwrite
// * * * * * * * * * * * * * * * * * * * * * * * * * * * * * * * * * * * * * //
