/*--------------------------------*- C++ -*----------------------------------*\
| =========                 |                                                 |
| \\      /  F ield         | OpenFOAM: The Open Source CFD Toolbox           |
|  \\    /   O peration     | Version:  Any                                   |
|   \\  /    A nd           | Web:      www.OpenFOAM.org                      |
|    \\/     M anipulation  |                                                 |
\*---------------------------------------------------------------------------*/
FoamFile
{
    version     2.0;
    format      ascii;
    class       dictionary;
    object      testDictTest;
}
// * * * * * * * * * * * * * * * * * * * * * * * * * * * * * * * * * * * * * //

flowRatePerHour 720;

x       10;
y       20;
z       t s v;
// z       #test{ // this
//     123 - 456
//         // comments // are
//         /* stripped
//         * 10
//          * {}
//          */
//         + 1 /*100 */  10
// };

p     this calculation #calc{
          1 + 2 + 10 * 15 +
          $x - $y
        // $x + $y
}
is done inplace;


flowRate    #calc{ $flowRatePerHour / 3600 };

sin45       #calc{ sin( 45*pi() / 180 ) };
cos45       #calc{ cos( degToRad(45) ) };
pow         #calc{ pow( $x, $y ) };
log10       #calc{ log( 1e6 ) };
// list #calc{ list() };

xxx         yyy;
foo         30;
bar         15;

// * * * * * * * * * * * * * * * * * * * * * * * * * * * * * * * * * * * * * //
