/*--------------------------------*- C++ -*----------------------------------*\
| =========                 |                                                 |
| \\      /  F ield         | OpenFOAM: The Open Source CFD Toolbox           |
|  \\    /   O peration     | Version:  v2112                                 |
|   \\  /    A nd           | Website:  www.openfoam.com                      |
|    \\/     M anipulation  |                                                 |
\*---------------------------------------------------------------------------*/
FoamFile
{
    version     2.0;
    format      ascii;
    class       dictionary;
    object      dictionary;
}
// * * * * * * * * * * * * * * * * * * * * * * * * * * * * * * * * * * * * //
#inputMode  merge

".*"        parentValue1;
"[n-z].*"   parentValue2;
"f.*"       parentValue3;
keyX        parentValue4;
keyY        parentValue5;

"(.*)Dict"
{
    foo         subdictValue0;
    //bar         $f.*;         // should this really match 'foo'?

    // result is dependent on insert order!
    "a.*c"      subdictValue3;
    "ab.*"      subdictValue2;
    "a.*"       subdictValue1;
    abcd        \1;
}

// * * * * * * * * * * * * * * * * * * * * * * * * * * * * * * * * * * * * //
