/*--------------------------------*- C++ -*----------------------------------*\
| =========                 |                                                 |
| \\      /  F ield         | OpenFOAM: The Open Source CFD Toolbox           |
|  \\    /   O peration     | Version:  v1806                                 |
|   \\  /    A nd           | Web:      www.OpenFOAM.com                      |
|    \\/     M anipulation  |                                                 |
\*---------------------------------------------------------------------------*/
FoamFile
{
    version     2.0;
    format      ascii;
    class       dictionary;
    object      topoSetDict;
}
// * * * * * * * * * * * * * * * * * * * * * * * * * * * * * * * * * * * * * //

actions
(
    {
        name    c0;
        type    cellSet;
        action  new;
        source  regionToCell;
        sourceInfo
        {
            insidePoints ((0.001 0.001 0.001));
        }
    }

    {
        name    c1;
        type    cellSet;
        action  new;
        source  cellToCell;
        sourceInfo
        {
            set c0;
        }
    }

    {
        name    c1;
        type    cellSet;
        action  invert;
    }

    // Select box to remove from region 1

    {
        name    box;
        type    cellSet;
        action  new;
        source  cellToCell;
        sourceInfo
        {
            set c1;
        }
    }

    {
        name    box;
        type    cellSet;
        action  subset;
        source  boxToCell;
        sourceInfo
        {
            box (0.4 0.4 -100)(0.6 0.6 100);
        }
    }

    {
        name    box;
        type    cellSet;
        action  invert;
    }
);

// ************************************************************************* //
