/*--------------------------------*- C++ -*----------------------------------*\
| =========                 |                                                 |
| \\      /  F ield         | OpenFOAM: The Open Source CFD Toolbox           |
|  \\    /   O peration     | Version:  dev                                   |
|   \\  /    A nd           | Web:      www.OpenFOAM.org                      |
|    \\/     M anipulation  |                                                 |
\*---------------------------------------------------------------------------*/
FoamFile
{
    version     2.0;
    format      ascii;
    class       dictionary;
    location    "constant";
    object      transportProperties;
}
// * * * * * * * * * * * * * * * * * * * * * * * * * * * * * * * * * * * * * //

phase1
{
    nu              nu [ 0 2 -1 0 0 0 0 ] 1.6e-05;
    rho             rho [ 1 -3 0 0 0 0 0 ] 1;
    d               d [ 0 1 0 0 0 0 0 ] 0.003;
}

phase2
{
    nu              nu [ 0 2 -1 0 0 0 0 ] 1e-06;
    rho             rho [ 1 -3 0 0 0 0 0 ] 1000;
    d               d [ 0 1 0 0 0 0 0 ] 0.0001;
}

Cvm             Cvm [ 0 0 0 0 0 0 0 ] 0.5;

Cl              Cl [ 0 0 0 0 0 0 0 ] 0;

Ct              Ct [ 0 0 0 0 0 0 0 ] 1;


// ************************************************************************* //
