/*--------------------------------*- C++ -*----------------------------------*\
| =========                 |                                                 |
| \\      /  F ield         | OpenFOAM: The Open Source CFD Toolbox           |
|  \\    /   O peration     | Version:  dev                                   |
|   \\  /    A nd           | Web:      www.OpenFOAM.com                      |
|    \\/     M anipulation  |                                                 |
\*---------------------------------------------------------------------------*/
FoamFile
{
    version     2.0;
    format      ascii;
    class       dictionary;
    location    "constant";
    object      limestoneCloud1Properties;
}
// * * * * * * * * * * * * * * * * * * * * * * * * * * * * * * * * * * * * * //

solution
{
    active          true;
    coupled         true;
    cellValueSourceCorrection on;

    interpolationSchemes
    {
        rho             cell;
        mu              cell;
        U               cellPoint;
        Cp              cell;
        T               cell;
    }

    integrationSchemes
    {
        U               Euler;
        T               Analytical;
    }
}

radiation       on;

parcelTypeId    2;

constantProperties
{
    rhoMin          1e-15;
    TMin            200;
    minParticleMass 1e-15;
    rho0            2500;
    youngsModulus   40e9;
    poissonsRatio   0.25;
    T0              300;
    cp0             900;
    epsilon0        1;
    f0              0.5;
    Pr              0.7;
}

particleForces
{
    gravity             on;
    virtualMass         off;
    pressureGradient    off;
    paramagnetic        off;
}

subModels
{
    InjectionModel  ManualInjection;

    DragModel       SphereDrag;

    DispersionModel StochasticDispersionRAS;

    PatchInteractionModel StandardWallInteraction;

    HeatTransferModel RanzMarshall;

    PostProcessingModel none;

    CollisionModel  none;

    SurfaceFilmModel none;

    ManualInjectionCoeffs
    {
        massTotal       massTotal [ 1 0 0 0 0 ] 0.0001;
        parcelBasisType mass;
        SOI             0;
        positionsFile   "limestonePositions";
        U0              ( 0 0 0 );
        parcelPDF
        {
            pdfType         RosinRammler;
            RosinRammlerPDF
            {
                minValue        5e-06;
                maxValue        0.000565;
                d               4.8e-05;
                n               0.5;
            }
        }
    }

    StandardWallInteractionCoeffs
    {
        type            rebound;
        e               1;
        mu              0;
    }

    RanzMarshallCoeffs
    {
        BirdCorrection  false;
    }
}


// ************************************************************************* //
