/*--------------------------------*- C++ -*----------------------------------*\
| =========                 |                                                 |
| \\      /  F ield         | OpenFOAM: The Open Source CFD Toolbox           |
|  \\    /   O peration     | Version:  dev                                   |
|   \\  /    A nd           | Web:      www.OpenFOAM.org                      |
|    \\/     M anipulation  |                                                 |
\*---------------------------------------------------------------------------*/
FoamFile
{
    version     2.0;
    format      ascii;
    class       dictionary;
    location    "constant";
    object      thermophysicalProperties;
}
// * * * * * * * * * * * * * * * * * * * * * * * * * * * * * * * * * * * * * //

thermoType      hsPsiMixtureThermo<reactingMixture<gasThermoPhysics>>;

chemistryReader foamChemistryReader;

foamChemistryThermoFile "$FOAM_CASE/constant/foam.dat";

foamChemistryFile "$FOAM_CASE/constant/foam.inp";

inertSpecie     N2;

liquids
{
    H2O
    {
        defaultCoeffs   yes;
    }
}

solids
{
    C
    {
        defaultCoeffs   yes;
    }
    ash
    {
        defaultCoeffs   yes;
    }
}


// ************************************************************************* //
