/*--------------------------------*- C++ -*----------------------------------*\
| =========                 |                                                 |
| \\      /  F ield         | OpenFOAM: The Open Source CFD Toolbox           |
|  \\    /   O peration     | Version:  dev                                   |
|   \\  /    A nd           | Web:      www.OpenFOAM.com                      |
|    \\/     M anipulation  |                                                 |
\*---------------------------------------------------------------------------*/
FoamFile
{
    version     2.0;
    format      ascii;
    class       dictionary;
    location    "constant";
    object      thermophysicalProperties;
}
// * * * * * * * * * * * * * * * * * * * * * * * * * * * * * * * * * * * * * //

thermoType      hsPsiMixtureThermo<reactingMixture<gasThermoPhysics>>;

chemistryReader foamChemistryReader;

foamChemistryThermoFile "$FOAM_CASE/chemkin/foam.dat";

foamChemistryFile "$FOAM_CASE/chemkin/foam.inp";

inertSpecie     N2;

liquids
{
    liquidComponents
    (
        H2O
    );

    H2O             H2O defaultCoeffs;
}

solids
{
    solidComponents
    (
        C
        ash
    );

    C               C defaultCoeffs;
    ash             ash defaultCoeffs;
}


// ************************************************************************* //
