/*--------------------------------*- C++ -*----------------------------------*\
| =========                 |                                                 |
| \\      /  F ield         | OpenFOAM: The Open Source CFD Toolbox           |
|  \\    /   O peration     | Version:  1.6                                   |
|   \\  /    A nd           | Web:      www.OpenFOAM.org                      |
|    \\/     M anipulation  |                                                 |
\*---------------------------------------------------------------------------*/
FoamFile
{
    version     2.0;
    format      ascii;
    class       dictionary;
    location    "system";
    object      controlDict;
}
// * * * * * * * * * * * * * * * * * * * * * * * * * * * * * * * * * * * * * //

application     LTSReactingParcelFoam;

startFoam       latestTime;

startTime       0;

stopAt          endTime;

endTime         300;

deltaT          1;

writeControl    timeStep;

writeInterval   10;

purgeWrite      20;

writeFormat     ascii;

writePrecision  10;

writeCompression uncompressed;

timeFormat      general;

timePrecision   6;

runTimeModifiable yes;

maxCo               5;

alphaTauSmooth      1e10;

alphaTauTemp        1e10;

alphaTauRho         1e10;

alphaTauSpecie      1e10;

maxDeltaT           1e10;

functions
{
    faceSource1
    {
        type            faceSource;
        functionObjectLibs ("libfieldFunctionObjects.so");
        enabled         true;
        outputControl   outputTime;
        log             true;
        valueOutput     true;
        source          patch;
        sourceName      outlet;
        operation       weightedAverage;
        weightField     phi;
        fields
        (
            H2O
            T
        );
    }
}


// ************************************************************************* //
