/*--------------------------------*- C++ -*----------------------------------*\
| =========                 |                                                 |
| \\      /  F ield         | OpenFOAM: The Open Source CFD Toolbox           |
|  \\    /   O peration     | Version:  v1806                                 |
|   \\  /    A nd           | Web:      www.OpenFOAM.com                      |
|    \\/     M anipulation  |                                                 |
\*---------------------------------------------------------------------------*/
FoamFile
{
    version     2.0;
    format      ascii;
    class       dictionary;
    location    "system";
    object      controlDict;
}
// * * * * * * * * * * * * * * * * * * * * * * * * * * * * * * * * * * * * * //

application     simpleFoam;

startFrom       startTime;

startTime       0;

stopAt          endTime;

endTime         5000;

deltaT          1;

writeControl    timeStep;

writeInterval   100;

purgeWrite      10;

writeFormat     ascii;

writePrecision  6;

writeCompression off;

timeFormat      general;

timePrecision   6;

runTimeModifiable true;

functions
{
    forceCoeffs1
    {
        type            forceCoeffs;
        libs            ("libforces.so" );
        writeControl    writeTime;
        writeFields     true;

        patches         (body);
        p               p;
        U               U;
        rho             rhoInf;      // Indicates incompressible
        log             true;
        rhoInf          1;           // Redundant for incompressible
        liftDir         (0 1 0);
        dragDir         (1 0 0);
        CofR            (3.5 0 0);   // Axle midpoint on ground
        pitchAxis       (0 0 1);
        magUInf         10;
        lRef            4;           // Wheelbase length
        Aref            1;           // Estimated
        porosity        on;

        binData
        {
            nBin            20;          // output data into 20 bins
            direction       (1 0 0);     // bin direction
            cumulative      yes;
        }
    }
}

// ************************************************************************* //
