/*--------------------------------*- C++ -*----------------------------------*\
| =========                 |                                                 |
| \\      /  F ield         | OpenFOAM: The Open Source CFD Toolbox           |
|  \\    /   O peration     | Version:  dev                                   |
|   \\  /    A nd           | Web:      www.OpenFOAM.com                      |
|    \\/     M anipulation  |                                                 |
\*---------------------------------------------------------------------------*/
FoamFile
{
    version     2.0;
    format      ascii;
    class       polyBoundaryMesh;
    location    "constant/polyMesh";
    object      boundary;
}
// * * * * * * * * * * * * * * * * * * * * * * * * * * * * * * * * * * * * * //

6
(
    topAndBottom
    {
        type            patch;
        nFaces          72;
        startFace       495985;
    }
    inlet
    {
        type            patch;
        nFaces          72;
        startFace       496057;
    }
    outlet
    {
        type            patch;
        nFaces          204;
        startFace       496129;
    }
    front
    {
        type            empty;
        nFaces          12559;
        startFace       496333;
    }
    back
    {
        type            empty;
        nFaces          12559;
        startFace       508892;
    }
    wing_5degrees.obj_WALL10
    {
        type            wall;
        nFaces          12096;
        startFace       521451;
    }
)

// ************************************************************************* //
