/*--------------------------------*- C++ -*----------------------------------*\
| =========                 |                                                 |
| \\      /  F ield         | OpenFOAM: The Open Source CFD Toolbox           |
|  \\    /   O peration     | Version:  v2112                                 |
|   \\  /    A nd           | Website:  www.openfoam.com                      |
|    \\/     M anipulation  |                                                 |
\*---------------------------------------------------------------------------*/
FoamFile
{
    version     2.0;
    format      ascii;
    class       dictionary;
    object      thermophysicalProperties;
}
// * * * * * * * * * * * * * * * * * * * * * * * * * * * * * * * * * * * * * //

thermoType
{
    type            heRhoThermo;
    mixture         reactingMixture;
    transport       polynomial;
    thermo          hPolynomial;
    energy          sensibleEnthalpy;
    equationOfState icoPolynomial;
    // the coefficients of the icoPolynomial model are set to follow
    // the Boussinesq approximation; please inspect the
    // "thermo.incompressiblePoly" file for details
    specie          specie;
}

dpdt no;

chemistryReader foamChemistryReader;

foamChemistryFile "<constant>/reactions";

foamChemistryThermoFile "<constant>/thermo.incompressiblePoly";

liquids
{
    H2O;
}

solids
{
    C
    {
        rho             2010;
        Cp              710;
        kappa           0.04;
        Hf              0;
        emissivity      1.0;
    }
}

inertSpecie     N2;


// ************************************************************************* //
