/*--------------------------------*- C++ -*----------------------------------*\
| =========                 |                                                 |
| \\      /  F ield         | OpenFOAM: The Open Source CFD Toolbox           |
|  \\    /   O peration     | Version:  v1906                                 |
|   \\  /    A nd           | Web:      www.OpenFOAM.com                      |
|    \\/     M anipulation  |                                                 |
\*---------------------------------------------------------------------------*/
FoamFile
{
    version     2.0;
    format      ascii;
    class       volVectorField;
    location    "0";
    object      Ua;
}
// * * * * * * * * * * * * * * * * * * * * * * * * * * * * * * * * * * * * * //

dimensions      [ 0 1 -1 0 0 0 0 ];

internalField   uniform ( 0 0 0 );

boundaryField
{
    frontBack
    {
        type            empty;
    }
    suction
    {
        type            adjointWallVelocity;
        value           uniform ( 0 0 0 );
    }
    pressure
    {
        type            adjointWallVelocity;
        value           uniform ( 0 0 0 );
    }
    inlet
    {
        type            adjointFarFieldVelocity;
        value           uniform ( 0 0 0 );
    }
}


// ************************************************************************* //
