/*--------------------------------*- C++ -*----------------------------------*\
| =========                 |                                                 |
| \\      /  F ield         | OpenFOAM: The Open Source CFD Toolbox           |
|  \\    /   O peration     | Version:  v1906                                 |
|   \\  /    A nd           | Web:      www.OpenFOAM.com                      |
|    \\/     M anipulation  |                                                 |
\*---------------------------------------------------------------------------*/
FoamFile
{
    version     2.0;
    format      ascii;
    class       dictionary;
    object      decomposeParDict;
}

// * * * * * * * * * * * * * * * * * * * * * * * * * * * * * * * * * * * * * //

numberOfSubdomains 5;

method          hierarchical;
// method          ptscotch;

coeffs
{
    n           (5 1 1);
}


// Optional decomposition constraints
constraints
{
    refinementHistory
    {
        //- Decompose cells such that all cell originating from single cell
        //  end up on same processor
        type    refinementHistory;
    }
}


// ************************************************************************* //
