/*--------------------------------*- C++ -*----------------------------------*\
| =========                 |                                                 |
| \\      /  F ield         | OpenFOAM: The Open Source CFD Toolbox           |
|  \\    /   O peration     | Version:  1.6                                   |
|   \\  /    A nd           | Web:      www.OpenFOAM.org                      |
|    \\/     M anipulation  |                                                 |
\*---------------------------------------------------------------------------*/
FoamFile
{
    version     2.0;
    format      ascii;
    class       volScalarField;
    location    "0";
    object      omega;
}
// * * * * * * * * * * * * * * * * * * * * * * * * * * * * * * * * * * * * * //

dimensions      [0 0 -1 0 0 0 0];

internalField   uniform 0.0016;

boundaryField
{
    back
    {
        type            symmetryPlane;
    }
    front
    {
        type            symmetryPlane;
    }
    inletCentral
    {
        type            compressible::turbulentMixingLengthFrequencyInlet;
        mixingLength    0.007;
        k               k;
        value           uniform 0.0016;
    }
    inletSides
    {
        type            compressible::turbulentMixingLengthFrequencyInlet;
        mixingLength    0.007;
        k               k;
        value           uniform 0.0016;
    }
    outlet
    {
        type            zeroGradient;
    }
    walls
    {
        type            compressible::omegaWallFunction;
        Cmu             0.09;
        kappa           0.41;
        E               9.8;
        value           uniform 0.0016;
    }
}


// ************************************************************************* //
