/*--------------------------------*- C++ -*----------------------------------*\
| =========                 |                                                 |
| \\      /  F ield         | OpenFOAM: The Open Source CFD Toolbox           |
|  \\    /   O peration     | Version:  dev.thermoChemDicts                   |
|   \\  /    A nd           | Web:      www.OpenFOAM.com                      |
|    \\/     M anipulation  |                                                 |
\*---------------------------------------------------------------------------*/
FoamFile
{
    version     2.0;
    format      ascii;
    class       dictionary;
    location    "constant";
    object      thermophysicalProperties;
}
// * * * * * * * * * * * * * * * * * * * * * * * * * * * * * * * * * * * * * //

thermoType      ePsiThermo<pureMixture<constTransport<specieThermo<hConstThermo<perfectGas>>>>>;

mixture
{
    nMoles          1;
    molWeight       28.96;
    Cp              1004.5;
    Hf              2.544e+06;
    mu              0;
    Pr              1;
}


// ************************************************************************* //
