/*--------------------------------*- C++ -*----------------------------------*\
| =========                 |                                                 |
| \\      /  F ield         | OpenFOAM: The Open Source CFD Toolbox           |
|  \\    /   O peration     | Version:  v2306                                 |
|   \\  /    A nd           | Website:  www.openfoam.com                      |
|    \\/     M anipulation  |                                                 |
\*---------------------------------------------------------------------------*/
FoamFile
{
    version     2.0;
    format      ascii;
    class       dictionary;
    object      blockMeshDict;
}
// * * * * * * * * * * * * * * * * * * * * * * * * * * * * * * * * * * * * * //

scale   1;

vertices
(
    (-0.1  0.00  -0.05)
    ( 0.0  0.00  -0.05)
    ( 0.0  0.01  -0.05)
    (-0.1  0.01  -0.05)
    (-0.1  0.00   0.05)
    ( 0.0  0.00   0.05)
    ( 0.0  0.01   0.05)
    (-0.1  0.01   0.05)
);

blocks
(
    hex (0 1 2 3 4 5 6 7) (10 4 1) simpleGrading (1 1 1)
);

edges
(
);

boundary
(
    minX
    {
        type patch;
        faces
        (
            (0 4 7 3)
        );
    }
    maxX
    {
        type patch;
        inGroups    (group_solid);
        faces
        (
            (2 6 5 1)
        );
    }
    minY
    {
        type patch;
        inGroups    (group_solid);
        faces
        (
            (1 5 4 0)
        );
    }
    maxY
    {
        type patch;
        inGroups    (group_fluid);
        faces
        (
            (3 7 6 2)
        );
    }
    minZ
    {
        type patch;
        faces
        (
            (0 3 2 1)
        );
    }
    maxZ
    {
        type patch;
        faces
        (
            (4 5 6 7)
        );
    }
);

// ************************************************************************* //
