/*--------------------------------*- C++ -*----------------------------------*\
| =========                 |                                                 |
| \\      /  F ield         | OpenFOAM: The Open Source CFD Toolbox           |
|  \\    /   O peration     | Version:  v2112                                 |
|   \\  /    A nd           | Website:  www.openfoam.com                      |
|    \\/     M anipulation  |                                                 |
\*---------------------------------------------------------------------------*/
FoamFile
{
    version     2.0;
    format      ascii;
    class       dictionary;
    location    "templates";
    object      icoFoam;
}
// * * * * * * * * * * * * * * * * * * * * * * * * * * * * * * * * * * * * * //

solverType  incompressible;

multiRegion no;

fluidModels
{
}

fluidFields
{
    U
    {
        type        vector;
        dimensions  [0 1 -1 0 0];
    }
    p
    {
        type        scalar;
        dimensions  [0 2 -2 0 0];
    }
}

// ************************************************************************* //
