/*--------------------------------*- C++ -*----------------------------------*\
| =========                 |                                                 |
| \\      /  F ield         | OpenFOAM: The Open Source CFD Toolbox           |
|  \\    /   O peration     | Version:  v1806                                 |
|   \\  /    A nd           | Web:      www.OpenFOAM.com                      |
|    \\/     M anipulation  |                                                 |
\*---------------------------------------------------------------------------*/
FoamFile
{
    version     2.0;
    format      ascii;
    class       dictionary;
    object      controlDict;
}
// * * * * * * * * * * * * * * * * * * * * * * * * * * * * * * * * * * * * * //

libs            ("liboverset.so");

DebugSwitches
{
    overset                 0;
    dynamicOversetFvMesh    0;
}

application     overPimpleDyMFoam;

startFrom       startTime;

startTime       0;

stopAt          endTime;

endTime         0.08;

deltaT          2e-5;

writeControl    adjustableRunTime;

writeInterval   0.005;

purgeWrite      0;

writeFormat     ascii;

writePrecision  10;

writeCompression off;

timeFormat      general;

timePrecision   6;

runTimeModifiable true;

adjustTimeStep  no;

maxCo           1;


functions
{
    // #include "catalyst"
    probes
    {
        type            probes;
        libs            ("libsampling.so");

        // Name of the directory for probe data
        name            probes;

        // Write at same frequency as fields
        writeControl    timeStep;
        writeInterval   1;

        // Fields to be probed
        fields          (p U);

        // Optional: interpolation scheme to use (default is cell)
        interpolationScheme cell;

        probeLocations
        (
            (0.015 0.005 0.005)      // at inlet
        );

    }
}


// ************************************************************************* //
