/*--------------------------------*- C++ -*----------------------------------*\
| =========                 |                                                 |
| \\      /  F ield         | OpenFOAM: The Open Source CFD Toolbox           |
|  \\    /   O peration     | Version:  v2112                                 |
|   \\  /    A nd           | Website:  www.openfoam.com                      |
|    \\/     M anipulation  |                                                 |
\*---------------------------------------------------------------------------*/
FoamFile
{
    version     2.0;
    format      ascii;
    class       dictionary;
    object      decomposeParDict;
}
// * * * * * * * * * * * * * * * * * * * * * * * * * * * * * * * * * * * * * //

numberOfSubdomains 8;

method      simple;

coeffs
{
    n       ( 2 2 2 );

    // Optional coordinate transformation for sorting
    transform
    {
        origin      (-0.15 0.15 0);
        rotation
        {
            type    axisAngle;
            axis    (0 0 1);
            angle   44.5;

            // Or disabled
            //type    none;
        }
    }
}


// ************************************************************************* //
