/*--------------------------------*- C++ -*----------------------------------*\
| =========                 |                                                 |
| \\      /  F ield         | OpenFOAM: The Open Source CFD Toolbox           |
|  \\    /   O peration     | Version:  1.6                                   |
|   \\  /    A nd           | Web:      www.OpenFOAM.org                      |
|    \\/     M anipulation  |                                                 |
\*---------------------------------------------------------------------------*/
FoamFile
{
    version     2.0;
    format      ascii;
    class       dictionary;
    location    "system";
    object      fvSolution;
}
// * * * * * * * * * * * * * * * * * * * * * * * * * * * * * * * * * * * * * //

solvers
{
    p
    {
        solver          PCG;
        preconditioner  DIC;
        tolerance       1e-06;
        relTol          0.01;
    }

    pFinal
    {
        $p;
        tolerance       1e-06;
        relTol          0;
    }

    "(rho|U|h|k|epsilon|omega)"
    {
        solver          PBiCG;
        preconditioner  DILU;
        tolerance       1e-05;
        relTol          0.1;
    }

    "(rho|U|h|k|epsilon|omega)Final"
    {
        $U;
        tolerance       1e-05;
        relTol          0;
    }

}

PIMPLE
{
    momentumPredictor yes;
    nOuterCorrectors 50;
    nCorrectors     1;
    nNonOrthogonalCorrectors 0;
}

relaxationFactors
{
    "p.*"           0.3;
    "rho.*"         1;
    "(U|h|k|epsilon|omega)"  0.7;
    "(U|h|k|epsilon|omega)Final"       1;
}


// ************************************************************************* //
