/*--------------------------------*- C++ -*----------------------------------*\
| =========                 |                                                 |
| \\      /  F ield         | OpenFOAM: The Open Source CFD Toolbox           |
|  \\    /   O peration     | Version:  v1806                                 |
|   \\  /    A nd           | Web:      www.OpenFOAM.com                      |
|    \\/     M anipulation  |                                                 |
\*---------------------------------------------------------------------------*/
FoamFile
{
    version     2.0;
    format      ascii;
    class       dictionary;
    object      controlDict;
}
// * * * * * * * * * * * * * * * * * * * * * * * * * * * * * * * * * * * * * //

libs ("libturbulenceModelSchemes.so");

application     pimpleFoam;

startFrom       startTime;

startTime       0;

stopAt          endTime;

endTime         100;

deltaT          0.002;

writeControl    timeStep;

writeInterval   100;

purgeWrite      3;

writeFormat     binary;

writePrecision  6;

writeCompression off;

timeFormat      general;

timePrecision   6;

runTimeModifiable true;

functions
{
    minMax
    {
        type            fieldMinMax;
        libs            ("libfieldFunctionObjects.so");
        fields          (U p);
    }
    DESField
    {
        type            DESModelRegions;
        libs            ("libfieldFunctionObjects.so");
        //region "region0";
        writeControl    writeTime;
    }
    Q1
    {
        type            Q;
        libs            ("libfieldFunctionObjects.so");
        writeControl    writeTime;
    }
    vorticity1
    {
        type            vorticity;
        libs            ("libfieldFunctionObjects.so");
        writeControl    writeTime;
    }
    yPlus
    {
        type            yPlus;
        libs            ("libfieldFunctionObjects.so");
        writeControl    writeTime;
    }
    fieldAverage1
    {
        type            fieldAverage;
        libs            ("libfieldFunctionObjects.so");
        writeControl    writeTime;
        timeStart       10;

        fields
        (
            U
            {
                mean        on;
                prime2Mean  on;
                base        time;
            }

            p
            {
                mean        on;
                prime2Mean  on;
                base        time;
            }
        );
    }

    sample1
    {
        #include "sample"
    }
}



// ************************************************************************* //
