/*--------------------------------*- C++ -*----------------------------------*\
| =========                 |                                                 |
| \\      /  F ield         | OpenFOAM: The Open Source CFD Toolbox           |
|  \\    /   O peration     | Version:  v1906                                 |
|   \\  /    A nd           | Web:      www.OpenFOAM.com                      |
|    \\/     M anipulation  |                                                 |
\*---------------------------------------------------------------------------*/
FoamFile
{
    version     2.0;
    format      ascii;
    class       dictionary;
    object      changeDictionaryDict;
}
// * * * * * * * * * * * * * * * * * * * * * * * * * * * * * * * * * * * * * //

// boundary
// {
//     minY
//     {
//         type            patch;
//     }
//     minZ
//     {
//         type            patch;
//     }
//     maxZ
//     {
//         type            patch;
//     }
// }

T
{
    internalField   uniform 300;

    boundaryField
    {

        "heater_to_.*"
        {
            type            compressible::turbulentTemperatureRadCoupledMixed;
            Tnbr            T;
            kappaMethod     solidThermo;
            qrNbr           none;
            qr              none;
            value           uniform 300;
        }
    }
}

// ************************************************************************* //
