/*--------------------------------*- C++ -*----------------------------------*\
| =========                 |                                                 |
| \\      /  F ield         | OpenFOAM: The Open Source CFD Toolbox           |
|  \\    /   O peration     | Version:  v1806                                 |
|   \\  /    A nd           | Web:      www.OpenFOAM.com                      |
|    \\/     M anipulation  |                                                 |
\*---------------------------------------------------------------------------*/
FoamFile
{
    version     2.0;
    format      ascii;
    class       dictionary;
    location    "constant";
    object      parcelInjectionProperties;
}
// * * * * * * * * * * * * * * * * * * * * * * * * * * * * * * * * * * * * * //
// (x y z) (u v w) d rho mDot T Cp (Y0..Y2) (Yg0..YgN) (Yl0..YlN) (Ys0..YsN)
(
    (0 1.95 -0.2) (0 -5 0) 0.001 1000 0.002 300 4200 (0 1 0) () (1) ()
    (0 1.95    0) (0 -5 0) 0.001 1000 0.002 300 4200 (0 1 0) () (1) ()
    (0 1.95  0.2) (0 -5 0) 0.001 1000 0.002 300 4200 (0 1 0) () (1) ()
);


// ************************************************************************* //
