/*--------------------------------*- C++ -*----------------------------------*\
| =========                 |                                                 |
| \\      /  F ield         | OpenFOAM: The Open Source CFD Toolbox           |
|  \\    /   O peration     | Version:  dev                                   |
|   \\  /    A nd           | Web:      www.OpenFOAM.org                      |
|    \\/     M anipulation  |                                                 |
\*---------------------------------------------------------------------------*/
FoamFile
{
    version     2.0;
    format      ascii;
    class       dictionary;
    location    "system";
    object      fvSolution;
}
// * * * * * * * * * * * * * * * * * * * * * * * * * * * * * * * * * * * * * //

solvers
{
    "alpha.water.*"
    {
        nAlphaCorr      1;
        nAlphaSubCycles 1;
        cAlpha          1;
        icAlpha         0.25;

        MULESCorr       yes;
        nLimiterIter    8;
        alphaApplyPrevCorr  true;

        solver          smoothSolver;
        smoother        symGaussSeidel;
        tolerance       1e-8;
        relTol          0;
    }

    pcorr
    {
        solver          PCG;

        preconditioner
        {
            preconditioner  GAMG;

            smoother        DICGaussSeidel;
            agglomerator    faceAreaPair;
            mergeLevels     1;
            nCellsInCoarsestLevel 10;
            cacheAgglomeration true;

            tolerance       1e-5;
            relTol          0;
        };

        tolerance       1e-5;
        relTol          0;
    };

    p_rgh
    {
        solver          GAMG;

        smoother        GaussSeidel;
        agglomerator    faceAreaPair;
        mergeLevels     1;
        nCellsInCoarsestLevel 10;
        cacheAgglomeration true;

        tolerance       1e-7;
        relTol          0.01;
    };

    p_rghFinal
    {
        $p_rgh;
        tolerance       1e-7;
        relTol          0;
    }

    "(U|k|omega).*"
    {
        solver          smoothSolver;

        smoother        GaussSeidel;
        nSweeps         1;

        tolerance       1e-7;
        relTol          0.1;
    };
}

PIMPLE
{
    momentumPredictor no;

    nCorrectors     1;
    nNonOrthogonalCorrectors 0;

    maxCo           5;
    maxAlphaCo      5;

    rDeltaTSmoothingCoeff 0.05;
    rDeltaTDampingCoeff 0.5;
    nAlphaSweepIter  0;
    nAlphaSpreadIter 0;
    maxDeltaT       1;
}

relaxationFactors
{
    fields
    {
    }
    equations
    {
        ".*" 1;
    }
}


// ************************************************************************* //
