/*--------------------------------*- C++ -*----------------------------------*\
| =========                 |                                                 |
| \\      /  F ield         | OpenFOAM: The Open Source CFD Toolbox           |
|  \\    /   O peration     | Version:  dev                                   |
<<<<<<< HEAD
|   \\  /    A nd           | Web:      www.OpenFOAM.com                      |
=======
|   \\  /    A nd           | Web:      www.OpenFOAM.org                      |
>>>>>>> 34d87d1a94f83ac39028abe5f447f2b6d069380b
|    \\/     M anipulation  |                                                 |
\*---------------------------------------------------------------------------*/
FoamFile
{
    version     2.0;
    format      ascii;
    class       dictionary;
    object      thermophysicalProperties;
}
// * * * * * * * * * * * * * * * * * * * * * * * * * * * * * * * * * * * * * //

thermoType      hPsiThermo<pureMixture<constTransport<specieThermo<hConstThermo<perfectGas>>>>>;

mixture         air 1 28.9 1000 0 1.8e-05 0.7;

// ************************************************************************* //
