/*--------------------------------*- C++ -*----------------------------------*\
| =========                 |                                                 |
| \\      /  F ield         | OpenFOAM: The Open Source CFD Toolbox           |
|  \\    /   O peration     | Version:  v1806                                 |
|   \\  /    A nd           | Web:      www.OpenFOAM.com                      |
|    \\/     M anipulation  |                                                 |
\*---------------------------------------------------------------------------*/
FoamFile
{
    version     2.0;
    format      ascii;
    class       volScalarField;
    location    "0";
    object      IDefault;
}
// * * * * * * * * * * * * * * * * * * * * * * * * * * * * * * * * * * * * * //

dimensions      [1 0 -3 0 0 0 0];

internalField   uniform 0;

boundaryField
{
    inlet
    {
        type            greyDiffusiveRadiation;
        value           uniform 0;
    }
    entrainment
    {
        type            greyDiffusiveRadiation;
        value           uniform 0;
    }
    outlet
    {
        type            greyDiffusiveRadiation;
        value           uniform 0;
    }
    region0_to_panelRegion_wallPanel
    {
        type            greyDiffusiveRadiation;
        value           uniform 0;
    }
    region0_to_panelRegion_internalWallPanel_top
    {
        type            greyDiffusiveRadiation;
        value           uniform 0;
    }
    region0_to_panelRegion_internalWallPanel_bottom
    {
        type            greyDiffusiveRadiation;
        value           uniform 0;
    }
}


// ************************************************************************* //
