/*--------------------------------*- C++ -*----------------------------------*\
| =========                 |                                                 |
| \\      /  F ield         | OpenFOAM: The Open Source CFD Toolbox           |
|  \\    /   O peration     | Version:  v2206                                 |
|   \\  /    A nd           | Website:  www.openfoam.com                      |
|    \\/     M anipulation  |                                                 |
\*---------------------------------------------------------------------------*/
FoamFile
{
    version     2.0;
    format      ascii;
    class       dictionary;
    object      fvSolution;
}
// * * * * * * * * * * * * * * * * * * * * * * * * * * * * * * * * * * * * * //

solvers
{
    h
    {
        solver           PCG;
        preconditioner   DIC;
        tolerance        1e-06;
        relTol           0; //0.1;
    }

    hFinal
    {
        $h;
        tolerance        1e-06;
        relTol           0;
    }
}

PIMPLE
{
    nNonOrthogonalCorrectors 0;

    // Use outer-correctors
    nOuterCorrectors        5;

    // Use inter-region coupling in final outer-corrector
    energyCoupling
    {
        iterations          5;
    }
}

//SIMPLE
//{
//    nNonOrthogonalCorrectors 0;
//}

relaxationFactors
{
//    equations
//    {
//        h               0.7;
//    }
}

// ************************************************************************* //
