/*--------------------------------*- C++ -*----------------------------------*\
| =========                 |                                                 |
| \\      /  F ield         | OpenFOAM: The Open Source CFD Toolbox           |
|  \\    /   O peration     | Version:  v1806                                 |
|   \\  /    A nd           | Web:      www.OpenFOAM.com                      |
|    \\/     M anipulation  |                                                 |
\*---------------------------------------------------------------------------*/
FoamFile
{
    version     2.0;
    format      ascii;
    class       volScalarField;
    location    "0";
    object      nut;
}
// * * * * * * * * * * * * * * * * * * * * * * * * * * * * * * * * * * * * * //

dimensions      [0 2 -1 0 0 0 0];

internalField   uniform 5e-07;

boundaryField
{
    #includeEtc "caseDicts/setConstraintTypes"

    upperWall
    {
        type            inletOutlet;
        inletValue      $internalField;
        value           $internalField;
    }

    wall
    {
        type            nutkWallFunction;
        Ks              uniform 100e-6;
        Cs              uniform 0.5;
        value           $internalField;
    }
}


// ************************************************************************* //
