/*--------------------------------*- C++ -*----------------------------------*\
| =========                 |                                                 |
| \\      /  F ield         | OpenFOAM: The Open Source CFD Toolbox           |
|  \\    /   O peration     | Version:  v1806                                 |
|   \\  /    A nd           | Web:      www.OpenFOAM.com                      |
|    \\/     M anipulation  |                                                 |
\*---------------------------------------------------------------------------*/
FoamFile
{
    version     2.0;
    format      ascii;
    class       dictionary;
    location    "system";
    object      fvSolution;
}
// * * * * * * * * * * * * * * * * * * * * * * * * * * * * * * * * * * * * * //

solvers
{
    ".*(rho|rhoFinal)"
    {
        solver          diagonal;
    }

    "alpha.liquid.*"
    {
        cAlpha          0;
        nAlphaCorr      2;
        nAlphaSubCycles 2;

        MULESCorr       yes;
        nLimiterIter    1;

        solver          smoothSolver;
        smoother        symGaussSeidel;
        tolerance       1e-8;
        relTol          0;
    }

    "U.*"
    {
        solver          smoothSolver;
        smoother        symGaussSeidel;
        tolerance       1e-7;
        relTol          0;
    };

    p_rgh
    {
        solver          GAMG;
        tolerance       1e-8;
        relTol          0.01;

        smoother        DICGaussSeidel;
        nPreSweeps      0;
        nPostSweeps     2;

        cacheAgglomeration true;

        nCellsInCoarsestLevel 10;
        agglomerator    faceAreaPair;
        mergeLevels     1;
        maxIter         100;
    };

    p_rghFinal
    {
        solver          PCG;
        preconditioner
        {
            preconditioner  GAMG;

            tolerance       1e-6;
            relTol          0;

            nVcycles        2;

            smoother        DICGaussSeidel;
            nPreSweeps      0;
            nPostSweeps     2;
            nFinestSweeps   2;

            cacheAgglomeration true;
            nCellsInCoarsestLevel 10;
            agglomerator    faceAreaPair;
            mergeLevels     1;
        };
        tolerance       1e-9;
        relTol          0;
        maxIter         300;
    };

    "pcorr.*"
    {
        $p_rgh;
        relTol          0;
    };

    "e.*"
    {
        solver          smoothSolver;
        smoother        symGaussSeidel;
        tolerance       1e-7;
        relTol          0.0;
    }

     "(k.*|omega.*|Theta.*).*"
    {
        solver          PBiCGStab;
        preconditioner  DILU;
        tolerance       1e-7;
        relTol          0;
    }
}

PIMPLE
{
    momentumPredictor   false;
    nOuterCorrectors    1;
    nCorrectors         2;
    nNonOrthogonalCorrectors 0;
}

relaxationFactors
{
    fields
    {
    }
    equations
    {
        ".*"            1;
    }
}


// ************************************************************************* //
