/*--------------------------------*- C++ -*----------------------------------*\
| =========                 |                                                 |
| \\      /  F ield         | OpenFOAM: The Open Source CFD Toolbox           |
|  \\    /   O peration     | Version:  v2306                                 |
|   \\  /    A nd           | Website:  www.openfoam.com                      |
|    \\/     M anipulation  |                                                 |
\*---------------------------------------------------------------------------*/
FoamFile
{
    version     2.0;
    format      ascii;
    arch        "LSB;label=32;scalar=64";
    class       volScalarField;
    location    "0/topAir";
    object      epsilon;
}
// * * * * * * * * * * * * * * * * * * * * * * * * * * * * * * * * * * * * * //

dimensions      [ 0 2 -3 0 0 0 0 ];

internalField   uniform 0.01;

boundaryField
{
    #includeEtc "caseDicts/setConstraintTypes"

    maxY
    {
        type            epsilonWallFunction;
        value           uniform 0.01;
    }
    minX
    {
        type            uniformFixedValue;
        uniformValue    0.01;
    }
    maxX
    {
        type            inletOutlet;
        value           uniform 0.01;
        inletValue      uniform 0.01;
    }
    minZ
    {
        type            epsilonWallFunction;
        value           uniform 0.01;
    }
    maxZ
    {
        type            epsilonWallFunction;
        value           uniform 0.01;
    }
    group_solid
    {
        type            epsilonWallFunction;
        value           uniform 0.01;
    }
    group_fluid
    {
        type            epsilonWallFunction;
        value           uniform 0.01;
    }
}


// ************************************************************************* //
