/*--------------------------------*- C++ -*----------------------------------*\
| =========                 |                                                 |
| \\      /  F ield         | OpenFOAM: The Open Source CFD Toolbox           |
|  \\    /   O peration     | Version:  v2306                                 |
|   \\  /    A nd           | Website:  www.openfoam.com                      |
|    \\/     M anipulation  |                                                 |
\*---------------------------------------------------------------------------*/
FoamFile
{
    version     2.0;
    format      ascii;
    class       dictionary;
    object      kinematicCloudProperties;
}
// * * * * * * * * * * * * * * * * * * * * * * * * * * * * * * * * * * * * * //

solution
{
    active          true;
    coupled         yes;
    transient       yes;
    cellValueSourceCorrection no;
    maxCo           0.3;

    sourceTerms
    {
        schemes
        {
            U               semiImplicit 1;
        }
    }

    interpolationSchemes
    {
        rho             cell;
        U               cellPoint;
        muc             cell;
        p               cell;
    }

    integrationSchemes
    {
        U               Euler;
    }
}

constantProperties
{
    rho0            1000;
}

subModels
{
    particleForces
    {
        sphereDrag;
        gravity;
    }

    injectionModels
    {
    }

    dispersionModel none;

    patchInteractionModel standardWallInteraction;

    stochasticCollisionModel none;

    surfaceFilmModel kinematicSurfaceFilm;

    standardWallInteractionCoeffs
    {
        type            rebound;
    }

    kinematicSurfaceFilmCoeffs
    {
        interactionType absorb;
    }
}


cloudFunctions
{}


// ************************************************************************* //
