/*--------------------------------*- C++ -*----------------------------------*\
| =========                 |                                                 |
| \\      /  F ield         | OpenFOAM: The Open Source CFD Toolbox           |
|  \\    /   O peration     | Version:  1.6                                   |
|   \\  /    A nd           | Web:      www.OpenFOAM.org                      |
|    \\/     M anipulation  |                                                 |
\*---------------------------------------------------------------------------*/
FoamFile
{
    version     2.0;
    format      ascii;
    class       volVectorField;
    location    "0/wallFilmRegion";
    object      USpf;
}
// * * * * * * * * * * * * * * * * * * * * * * * * * * * * * * * * * * * * * //

dimensions      [1 -1 -2 0 0 0 0]; // kg.m/s/(m2.s)

internalField   uniform  (0 0 0);

boundaryField
{
    wallFilmFaces_top
    {
        type            zeroGradient;
    }

    region0_to_wallFilmRegion_wallFilmFaces
    {
        type            directMappedFixedPushedInternalValue;
        average         (0 0 0);
        setAverage      no;
        value           uniform (0 0 0);
    }

    side1
    {
        type            zeroGradient;
    }

    side2
    {
        type            zeroGradient;
    }

    side3
    {
        type            zeroGradient;
    }

    side4
    {
        type            zeroGradient;
    }
}

// ************************************************************************* //
