/*--------------------------------*- C++ -*----------------------------------*\
| =========                 |                                                 |
| \\      /  F ield         | OpenFOAM: The Open Source CFD Toolbox           |
|  \\    /   O peration     | Version:  1.4.1                                 |
|   \\  /    A nd           | Web:      http://www.openfoam.org               |
|    \\/     M anipulation  |                                                 |
\*---------------------------------------------------------------------------*/

FoamFile
{
    version 2.0;
    format ascii;

    root "/home/dm2/henry/OpenFOAM/OpenFOAM-1.4.1/tutorials/settlingFoam";
    case "dahl";
    instance "constant";
    local "polyMesh";

    class polyBoundaryMesh;
    object boundary;
}

// * * * * * * * * * * * * * * * * * * * * * * * * * * * * * * * * * * * * * //

6
(
inlet
{
    type patch;
    nFaces 40;
    startFace 15760;
}

outlet
{
    type patch;
    nFaces 4;
    startFace 15800;
}

bottomWall
{
    type patch;
    nFaces 200;
    startFace 15804;
}

endWall
{
    type wall;
    nFaces 36;
    startFace 16004;
}

top
{
    type symmetryPlane;
    nFaces 200;
    startFace 16040;
}

frontAndBack
{
    type empty;
    nFaces 16000;
    startFace 16240;
}
)

// ************************************************************************* //
