/*--------------------------------*- C++ -*----------------------------------*\
| =========                 |                                                 |
| \\      /  F ield         | OpenFOAM: The Open Source CFD Toolbox           |
|  \\    /   O peration     | Version:  v2112                                 |
|   \\  /    A nd           | Website:  www.openfoam.com                      |
|    \\/     M anipulation  |                                                 |
\*---------------------------------------------------------------------------*/
FoamFile
{
    version     2.0;
    format      ascii;
    class       dictionary;
    object      topoSetDict;
}
// * * * * * * * * * * * * * * * * * * * * * * * * * * * * * * * * * * * * * //

actions
(
    // porousBlockage
    {
        name    porousBlockageCellSet;
        type    cellSet;
        action  new;
        source  boxToCell;
        box     (-0.5 -0.5 -1) (0.5 0.5 1);
    }
    {
        name    porousBlockage;
        type    cellZoneSet;
        action  new;
        source  setToCellZone;
        set     porousBlockageCellSet;
    }
);


// ************************************************************************* //
