/*--------------------------------*- C++ -*----------------------------------*\
| =========                 |                                                 |
| \\      /  F ield         | OpenFOAM: The Open Source CFD Toolbox           |
|  \\    /   O peration     | Version:  v2112                                 |
|   \\  /    A nd           | Website:  www.openfoam.com                      |
|    \\/     M anipulation  |                                                 |
\*---------------------------------------------------------------------------*/
FoamFile
{
    version     2.0;
    format      ascii;
    class       dictionary;
    object      fvOptions;
}
// * * * * * * * * * * * * * * * * * * * * * * * * * * * * * * * * * * * * * //

pressureGradient
{
    type                vectorSemiImplicitSource;
    selectionMode       all;
    volumeMode          specific;
    injectionRateSuSp
    {
        U ((0 1.978046e-03 0) 0);
    }
}

atmCoriolisUSource1
{
    type               atmCoriolisUSource;
    atmCoriolisUSourceCoeffs
    {
        selectionMode   all;
        Omega           (0 0 5.65156e-5);
    }
}


// ************************************************************************* //
