/*--------------------------------*- C++ -*----------------------------------*\
| =========                 |                                                 |
| \\      /  F ield         | OpenFOAM: The Open Source CFD Toolbox           |
|  \\    /   O peration     | Version:  dev                                   |
|   \\  /    A nd           | Web:      www.OpenFOAM.org                      |
|    \\/     M anipulation  |                                                 |
\*---------------------------------------------------------------------------*/
FoamFile
{
    version     2.0;
    format      ascii;
    class       dictionary;
    location    "templates";
    object      wallOptions;
}
// * * * * * * * * * * * * * * * * * * * * * * * * * * * * * * * * * * * * * //

wallFunction
{
}

heatTransfer
{
    adiabatic
    {
        T
        {
            type        zeroGradient;
        }
    }
    fixedTemperature
    {
        T
        {
            type        fixedValue;
            value       ${:VALUE.T};
        }
    }
    thermalCoupled
    {
        T
        {
            type        compressible::turbulentTemperatureCoupledBaffleMixed;
            value       ${:VALUE.T};
            Tnbr        T;
            kappa       fluidThermo;
            kappaName   none;
        }
    }
}


// ************************************************************************* //
