/*--------------------------------*- C++ -*----------------------------------*\
| =========                 |                                                 |
| \\      /  F ield         | OpenFOAM: The Open Source CFD Toolbox           |
|  \\    /   O peration     | Version:  v2112                                 |
|   \\  /    A nd           | Website:  www.openfoam.com                      |
|    \\/     M anipulation  |                                                 |
\*---------------------------------------------------------------------------*/
FoamFile
{
    version     2.0;
    format      ascii;
    class       dictionary;
    object      radiationProperties;
}
// * * * * * * * * * * * * * * * * * * * * * * * * * * * * * * * * * * * * * //

radiationModel  opaqueSolid;

absorptionEmissionModel constantAbsorptionEmission;

constantAbsorptionEmissionCoeffs
{
    absorptivity    absorptivity [ 0 -1 0 0 0 0 0 ] 0.0;  //opaque
    emissivity      emissivity [ 0 -1 0 0 0 0 0 ] 0.1;
    E               E [ 1 -1 -3 0 0 0 0 ] 0;
}

scatterModel    none;

transmissivityModel none;


// ************************************************************************* //
