/*--------------------------------*- C++ -*----------------------------------*\
| =========                 |                                                 |
| \\      /  F ield         | OpenFOAM: The Open Source CFD Toolbox           |
|  \\    /   O peration     | Version:  v2112                                 |
|   \\  /    A nd           | Website:  www.openfoam.com                      |
|    \\/     M anipulation  |                                                 |
\*---------------------------------------------------------------------------*/
FoamFile
{
    version     2.0;
    format      ascii;
    class       dictionary;
    object      setFieldsDict;
}
// * * * * * * * * * * * * * * * * * * * * * * * * * * * * * * * * * * * * * //

defaultFieldValues
(
    volScalarFieldValue zoneID 123
    volScalarFieldValue alpha.water 0
);

regions
(
    // Set cell values
    // (does zerogradient on boundaries)
    cellToCell
    {
        set c0;

        fieldValues
        (
            volScalarFieldValue zoneID 0
        );
    }

    cellToCell
    {
        set c1;

        fieldValues
        (
            volScalarFieldValue zoneID 2
        );
    }

    cellToCell
    {
        set c2;

        fieldValues
        (
            volScalarFieldValue zoneID 1
        );
    }

    // Set cell values
    // (does zerogradient on boundaries)
    boxToCell
    {
        box (-1000 -1000 -1000) (1000 1000 0.4125);

        fieldValues
        (
            volScalarFieldValue alpha.water 1
        );
    }
);


// ************************************************************************* //
