/*--------------------------------*- C++ -*----------------------------------*\
| =========                 |                                                 |
| \\      /  F ield         | OpenFOAM: The Open Source CFD Toolbox           |
|  \\    /   O peration     | Version:  dev                                   |
|   \\  /    A nd           | Web:      www.OpenFOAM.com                      |
|    \\/     M anipulation  |                                                 |
\*---------------------------------------------------------------------------*/
FoamFile
{
    version     2.0;
    format      ascii;
    class       dictionary;
    location    "constant";
    object      reactingCloud1Properties;
}
// * * * * * * * * * * * * * * * * * * * * * * * * * * * * * * * * * * * * * //

active          true;

radiation       off;

coupled         true;

cellValueSourceCorrection on;

parcelTypeId    1;

constantProperties
{
    rhoMin          1e-15;
    TMin            200;
    pMin            1000;
    rho0            1000;
    youngsModulus   1e9;
    poissonsRatio   0.35;
    minParticleMass 1e-15;
    T0              300;
    cp0             4100;
    epsilon0        1;
    f0              0.5;
    Pr              0.7;
    Tvap            273;
    Tbp             373;
    LDevol          0;
    hRetentionCoeff 1;
    constantVolume  false;
}

interpolationSchemes
{
    rho             cell;
    U               cellPoint;
    mu              cell;
    T               cell;
    Cp              cell;
    p               cell;
}

integrationSchemes
{
    U               Euler;
    T               Analytical;
}

particleForces
{
    gravity             on;
    virtualMass         off;
    pressureGradient    off;
    paramagnetic        off;
}

subModels
{
    InjectionModel  ReactingMultiphaseLookupTableInjection;

    DragModel       SphereDrag;

    DispersionModel none;

    PatchInteractionModel LocalInteraction;

    HeatTransferModel RanzMarshall;

    CompositionModel SingleMixtureFraction;

    PhaseChangeModel LiquidEvaporation;

    PostProcessingModel PatchPostProcessing;

    DevolatilisationModel none;

    SurfaceReactionModel none;

    SurfaceFilmModel none;

    CollisionModel none;

    ReactingMultiphaseLookupTableInjectionCoeffs
    {
        massTotal       massTotal [ 1 0 0 0 0 ] 1e-2;
        parcelBasisType mass;
        SOI             0.5;
        inputFile       "parcelInjectionProperties";
        duration        1.0;
        parcelsPerSecond 250;
    }

    StandardWallInteractionCoeffs
    {
        type            rebound;
    }

    LocalInteractionCoeffs
    {
        patches
        (
            walls
            {
                type    rebound;
            }
            cycLeft_half0
            {
                type    rebound;
            }
            cycLeft_half1
            {
                type    rebound;
            }
        );
    }

    RanzMarshallCoeffs
    {
        BirdCorrection  true;
    }

    SingleMixtureFractionCoeffs
    {
        phases
        (
            gas
            {
            }
            liquid
            {
                H2O 1;
            }
            solid
            {
            }
        );
        YGasTot0        0;
        YLiquidTot0     1;
        YSolidTot0      0;
    }

    LiquidEvaporationCoeffs
    {
        enthalpyTransfer enthalpyDifference;

        activeLiquids
        (
            H2O
        );
    }

    PatchPostProcessingCoeffs
    {
        maxStoredParcels 20;

        patches
        (
            cycLeft_half0
            cycLeft_half1
        );
    }
}


// ************************************************************************* //
