/*--------------------------------*- C++ -*----------------------------------*\
| =========                 |                                                 |
| \\      /  F ield         | OpenFOAM: The Open Source CFD Toolbox           |
|  \\    /   O peration     | Version:  v1806                                 |
|   \\  /    A nd           | Web:      www.OpenFOAM.com                      |
|    \\/     M anipulation  |                                                 |
\*---------------------------------------------------------------------------*/
FoamFile
{
    version     2.0;
    format      ascii;
    class       dictionary;
    object      extrudeToRegionMeshDict;
}
// * * * * * * * * * * * * * * * * * * * * * * * * * * * * * * * * * * * * * //

region          wallFilmRegion;

faceZones       (wallFilmFaces);

sampleMode      nearestPatchFace;

oneD            false;

extrudeModel    linearNormal;

nLayers         1;

expansionRatio  1;

adaptMesh       yes; // apply mapped to both regions

linearNormalCoeffs
{
    thickness       0.01;
}

// * * * * * * * * * * * * * * * * * * * * * * * * * * * * * * * * * * * * * //
