/*--------------------------------*- C++ -*----------------------------------*\
| =========                 |                                                 |
| \\      /  F ield         | OpenFOAM: The Open Source CFD Toolbox           |
|  \\    /   O peration     | Version:  dev                                   |
|   \\  /    A nd           | Web:      www.OpenFOAM.org                      |
|    \\/     M anipulation  |                                                 |
\*---------------------------------------------------------------------------*/
FoamFile
{
    version     2.0;
    format      ascii;
    class       dictionary;
    location    "system";
    object      fvSolution;
}
// * * * * * * * * * * * * * * * * * * * * * * * * * * * * * * * * * * * * * //

solvers
{
    "alpha1.*"
    {
        nAlphaCorr      1;
        nAlphaSubCycles 3;

        solver          PCG;
        preconditioner  DIC;
        tolerance       1e-10;
        relTol          0.1;
    }

    p
    {
        solver          GAMG;
        tolerance       1e-08;
        relTol          0.1;
        smoother        DIC;
        nPreSweeps      0;
        nPostSweeps     2;
        nFinestSweeps   2;
        cacheAgglomeration true;
        nCellsInCoarsestLevel 10;
        agglomerator    faceAreaPair;
        mergeLevels     1;
    }

    pFinal
    {
        $p;
        tolerance       1e-08;
        relTol          0;
    }

    "(k|epsilon)"
    {
        solver          PBiCG;
        preconditioner  DILU;
        tolerance       1e-05;
        relTol          0.1;
    }

    "(k|epsilon)Final"
    {
        $k;
        relTol          0;
    }
}

PIMPLE
{
    nCorrectors     2;
    nNonOrthogonalCorrectors 0;
    correctAlpha    yes;

    pRefCell        0;
    pRefValue       0;
}

// ************************************************************************* //
