/*--------------------------------*- C++ -*----------------------------------*\
| =========                 |                                                 |
| \\      /  F ield         | OpenFOAM: The Open Source CFD Toolbox           |
|  \\    /   O peration     | Version:  dev                                   |
|   \\  /    A nd           | Web:      www.OpenFOAM.org                      |
|    \\/     M anipulation  |                                                 |
\*---------------------------------------------------------------------------*/
FoamFile
{
    version     2.0;
    format      ascii;
    class       dictionary;
    location    "constant";
    object      phaseProperties;
}
// * * * * * * * * * * * * * * * * * * * * * * * * * * * * * * * * * * * * * //

phases (particles air);

particles
{
    diameterModel constant;
    constantCoeffs
    {
        d               3e-4;
    }
}

air
{
    diameterModel constant;
    constantCoeffs
    {
        d               1;
    }
}

blending
{
    default
    {
        type            none;
        residualAlpha   1e-6;
        continuousPhase air;
    }
}

sigma
(
    (particles and air) 0
);

aspectRatio
(
    (particles in air)
    {
        type            constant;
        E0              1.0;
    }

    (air in particles)
    {
        type            constant;
        E0              1.0;
    }
);

drag
(
    (particles in air)
    {
        type            GidaspowErgunWenYu;
        residualAlpha   1e-6;
        residualSlip    1e-3;
        residualRe      1e-3;
        swarmCorrection
        {
            type        none;
        }
    }

    (air in particles)
    {
        type            none;
    }

    (particles and air)
    {
        type            none;
    }
);

lift
(
    (particles in air)
    {
        type            none;
    }

    (air in particles)
    {
        type            none;
    }

    (particles and air)
    {
        type            none;
    }
);

heatTransfer
(
    (particles in air)
    {
        type            RanzMarshall;
        residualRe      1e-3;
    }

    (air in particles)
    {
        type            none;
    }

    (particles and air)
    {
        type            none;
    }
);

virtualMass
(
    (particles in air)
    {
        type            constantCoefficient;
        Cvm             0.5;
    }

    (air in particles)
    {
        type            none;
    }

    (particles and air)
    {
        type            none;
    }
);

wallLubrication
(
    (particles in air)
    {
        type            none;
    }

    (air in particles)
    {
        type            none;
    }

    (particles and air)
    {
        type            none;
    }
);

turbulentDispersion
(
    (particles in air)
    {
        type            none;
    }

    (air in particles)
    {
        type            none;
    }

    (particles and air)
    {
        type            none;
    }
);

// Minimum allowable pressure
pMin            10000;


// ************************************************************************* //
